* NGSPICE file created from user_analog_project_wrapper.ext - technology: sky130A

.subckt user_analog_project_wrapper io_analog[0] io_analog[10] io_analog[1] io_analog[2]
+ io_analog[8] io_analog[9] vssa2 vccd2 vccd1
X0 vccd1.t114 a_540271_687858.t5 a_540271_687858.t6 vccd1.t66 sky130_fd_pr__pfet_01v8 ad=0p pd=0u as=0p ps=0u w=5e+06u l=500000u
X1 vccd1.t113 a_540271_687858.t49 a_537154_685355.t27 vccd1.t79 sky130_fd_pr__pfet_01v8 ad=0p pd=0u as=0p ps=0u w=5e+06u l=500000u
X2 io_analog[10].t49 a_40125_693523.t32 vccd2.t138 vccd2.t137 sky130_fd_pr__pfet_01v8 ad=0p pd=0u as=0p ps=0u w=5e+06u l=500000u
X3 a_42818_684860.t20 io_analog[9].t0 a_43026_690892.t42 vssa2.t116 sky130_fd_pr__nfet_01v8 ad=0p pd=0u as=0p ps=0u w=5e+06u l=500000u
X4 a_40125_693523.t19 a_43026_690892.t49 vccd2.t57 vccd2.t20 sky130_fd_pr__pfet_01v8 ad=0p pd=0u as=0p ps=0u w=5e+06u l=500000u
X5 a_43026_690892.t41 a_43026_690892.t40 vccd2.t21 vccd2.t20 sky130_fd_pr__pfet_01v8 ad=0p pd=0u as=0p ps=0u w=5e+06u l=500000u
X6 a_537154_685355.t30 a_534722_685355.t6 vssa2.t140 sky130_fd_pr__res_xhigh_po_5p73 l=1e+07u
X7 vccd1.t40 a_540916_680434.t22 a_540371_681998.t5 vccd1.t10 sky130_fd_pr__pfet_01v8 ad=0p pd=0u as=0p ps=0u w=5e+06u l=1e+06u
X8 a_40125_693523.t20 a_43026_690892.t50 vccd2.t58 vccd2.t39 sky130_fd_pr__pfet_01v8 ad=0p pd=0u as=0p ps=0u w=5e+06u l=500000u
X9 a_43026_690892.t39 a_43026_690892.t38 vccd2.t40 vccd2.t39 sky130_fd_pr__pfet_01v8 ad=0p pd=0u as=0p ps=0u w=5e+06u l=500000u
X10 a_534722_685355.t4 a_537154_685355.t6 vssa2.t128 sky130_fd_pr__res_xhigh_po_5p73 l=1e+07u
X11 vccd1.t112 a_540271_687858.t50 a_537154_685355.t26 vccd1.t77 sky130_fd_pr__pfet_01v8 ad=0p pd=0u as=0p ps=0u w=5e+06u l=500000u
X12 a_43026_690892.t37 a_43026_690892.t36 vccd2.t19 vccd2.t6 sky130_fd_pr__pfet_01v8 ad=0p pd=0u as=0p ps=0u w=5e+06u l=500000u
X13 vccd1.t111 a_540271_687858.t25 a_540271_687858.t26 vccd1.t79 sky130_fd_pr__pfet_01v8 ad=0p pd=0u as=0p ps=0u w=5e+06u l=500000u
X14 a_42818_684860.t6 constant_gm_fingers_0/Vout.t14 vssa2.t50 vssa2.t49 sky130_fd_pr__nfet_01v8 ad=0p pd=0u as=0p ps=0u w=5e+06u l=1e+06u
X15 a_40125_693523.t2 a_43026_690892.t51 vccd2.t7 vccd2.t6 sky130_fd_pr__pfet_01v8 ad=0p pd=0u as=0p ps=0u w=5e+06u l=500000u
X16 vssa2.t38 constant_gm_fingers_0/Vout.t15 a_42818_684860.t4 vssa2.t37 sky130_fd_pr__nfet_01v8 ad=0p pd=0u as=0p ps=0u w=5e+06u l=1e+06u
X17 io_analog[2].t51 a_540371_681998.t16 vssa2.t29 vssa2.t28 sky130_fd_pr__nfet_01v8 ad=0p pd=0u as=0p ps=0u w=5e+06u l=1e+06u
X18 vssa2.t40 constant_gm_fingers_0/Vout.t16 a_42818_684860.t5 vssa2.t39 sky130_fd_pr__nfet_01v8 ad=0p pd=0u as=0p ps=0u w=5e+06u l=1e+06u
X19 vccd1.t9 a_540916_680434.t23 a_540371_681998.t4 vccd1.t8 sky130_fd_pr__pfet_01v8 ad=0p pd=0u as=0p ps=0u w=5e+06u l=1e+06u
X20 a_42818_684860.t0 io_analog[8].t0 a_40125_693523.t4 vssa2.t11 sky130_fd_pr__nfet_01v8 ad=0p pd=0u as=0p ps=0u w=5e+06u l=500000u
X21 vccd2.t136 a_40125_693523.t33 io_analog[10].t48 vccd2.t135 sky130_fd_pr__pfet_01v8 ad=0p pd=0u as=0p ps=0u w=5e+06u l=500000u
X22 io_analog[10].t52 a_37693_693523.t6 sky130_fd_pr__cap_mim_m3_1 l=1.6e+07u w=1.6e+07u
X23 vssa2.t30 a_540371_681998.t17 a_540459_681940.t27 vssa2 sky130_fd_pr__nfet_01v8 ad=0p pd=0u as=0p ps=0u w=5e+06u l=1e+06u
X24 io_analog[10].t47 a_40125_693523.t34 vccd2.t134 vccd2.t133 sky130_fd_pr__pfet_01v8 ad=0p pd=0u as=0p ps=0u w=5e+06u l=500000u
X25 vccd1.t110 a_540271_687858.t51 a_537154_685355.t25 vccd1.t71 sky130_fd_pr__pfet_01v8 ad=0p pd=0u as=0p ps=0u w=5e+06u l=500000u
X26 a_40125_693523.t3 a_43026_690892.t52 vccd2.t9 vccd2.t8 sky130_fd_pr__pfet_01v8 ad=0p pd=0u as=0p ps=0u w=5e+06u l=500000u
X27 a_43026_690892.t35 a_43026_690892.t34 vccd2.t29 vccd2.t8 sky130_fd_pr__pfet_01v8 ad=0p pd=0u as=0p ps=0u w=5e+06u l=500000u
X28 vccd1.t48 a_540916_680434.t18 a_540916_680434.t19 vccd1.t47 sky130_fd_pr__pfet_01v8 ad=0p pd=0u as=0p ps=0u w=5e+06u l=1e+06u
X29 vssa2.t97 a_540371_681998.t18 a_540459_681940.t26 vssa2 sky130_fd_pr__nfet_01v8 ad=0p pd=0u as=0p ps=0u w=5e+06u l=1e+06u
X30 vccd2.t145 a_43026_690892.t32 a_43026_690892.t33 vccd2.t41 sky130_fd_pr__pfet_01v8 ad=0p pd=0u as=0p ps=0u w=5e+06u l=500000u
X31 vccd2.t42 a_43026_690892.t53 a_40125_693523.t8 vccd2.t41 sky130_fd_pr__pfet_01v8 ad=0p pd=0u as=0p ps=0u w=5e+06u l=500000u
X32 vccd1.t109 a_540271_687858.t45 a_540271_687858.t46 vccd1.t71 sky130_fd_pr__pfet_01v8 ad=0p pd=0u as=0p ps=0u w=5e+06u l=500000u
X33 a_537154_685355.t3 io_analog[1].t0 a_540459_681940.t5 vssa2.t43 sky130_fd_pr__nfet_01v8 ad=0p pd=0u as=0p ps=0u w=5e+06u l=500000u
X34 a_540916_680434.t3 a_540371_681998.t19 a_541059_678436.t9 vssa2.t98 sky130_fd_pr__nfet_01v8 ad=0p pd=0u as=0p ps=0u w=5e+06u l=1e+06u
X35 vssa2.t4 constant_gm_fingers_0/Vout.t10 constant_gm_fingers_0/Vout.t11 vssa2.t3 sky130_fd_pr__nfet_01v8 ad=0p pd=0u as=0p ps=0u w=1.25e+06u l=1e+06u
X36 io_analog[2].t50 a_540371_681998.t20 vssa2.t83 vssa2.t82 sky130_fd_pr__nfet_01v8 ad=0p pd=0u as=0p ps=0u w=5e+06u l=1e+06u
X37 io_analog[10].t46 a_40125_693523.t35 vccd2.t132 vccd2.t131 sky130_fd_pr__pfet_01v8 ad=0p pd=0u as=0p ps=0u w=5e+06u l=500000u
X38 vccd1.t50 a_537154_685355.t32 io_analog[2].t39 vccd1.t31 sky130_fd_pr__pfet_01v8 ad=0p pd=0u as=0p ps=0u w=5e+06u l=500000u
X39 io_analog[10].t53 a_37693_693523.t5 sky130_fd_pr__cap_mim_m3_1 l=1.6e+07u w=1.6e+07u
X40 vssa2.t127 a_41722_677112.t9 vssa2 sky130_fd_pr__res_xhigh_po_5p73 l=6.9e+07u
X41 a_43833_677960.t5 constant_gm_fingers_0/Vout.t17 a_41722_677112.t5 vssa2.t137 sky130_fd_pr__nfet_01v8 ad=0p pd=0u as=0p ps=0u w=5e+06u l=1e+06u
X42 vccd2.t33 a_43833_677960.t20 a_43833_677960.t21 vccd2.t32 sky130_fd_pr__pfet_01v8 ad=0p pd=0u as=0p ps=0u w=5e+06u l=1e+06u
X43 vccd2.t130 a_40125_693523.t36 io_analog[10].t45 vccd2.t129 sky130_fd_pr__pfet_01v8 ad=0p pd=0u as=0p ps=0u w=5e+06u l=500000u
X44 vccd1.t108 a_540271_687858.t52 a_537154_685355.t24 vccd1.t66 sky130_fd_pr__pfet_01v8 ad=0p pd=0u as=0p ps=0u w=5e+06u l=500000u
X45 a_40125_693523.t9 a_43026_690892.t54 vccd2.t44 vccd2.t43 sky130_fd_pr__pfet_01v8 ad=0p pd=0u as=0p ps=0u w=5e+06u l=500000u
X46 a_43026_690892.t31 a_43026_690892.t30 vccd2.t50 vccd2.t43 sky130_fd_pr__pfet_01v8 ad=0p pd=0u as=0p ps=0u w=5e+06u l=500000u
X47 a_42818_684860.t25 constant_gm_fingers_0/Vout.t18 vssa2.t139 vssa2.t138 sky130_fd_pr__nfet_01v8 ad=0p pd=0u as=0p ps=0u w=5e+06u l=1e+06u
X48 vccd2.t160 a_43026_690892.t28 a_43026_690892.t29 vccd2.t47 sky130_fd_pr__pfet_01v8 ad=0p pd=0u as=0p ps=0u w=5e+06u l=500000u
X49 vccd2.t48 a_43026_690892.t55 a_40125_693523.t11 vccd2.t47 sky130_fd_pr__pfet_01v8 ad=0p pd=0u as=0p ps=0u w=5e+06u l=500000u
X50 vccd1.t51 a_537154_685355.t33 io_analog[2].t38 vccd1.t31 sky130_fd_pr__pfet_01v8 ad=0p pd=0u as=0p ps=0u w=5e+06u l=500000u
X51 vccd1.t107 a_540271_687858.t43 a_540271_687858.t44 vccd1.t66 sky130_fd_pr__pfet_01v8 ad=0p pd=0u as=0p ps=0u w=5e+06u l=500000u
X52 vccd1.t106 a_540271_687858.t53 a_537154_685355.t23 vccd1.t93 sky130_fd_pr__pfet_01v8 ad=0p pd=0u as=0p ps=0u w=5e+06u l=500000u
X53 vccd1.t105 a_540271_687858.t54 a_537154_685355.t22 vccd1.t79 sky130_fd_pr__pfet_01v8 ad=0p pd=0u as=0p ps=0u w=5e+06u l=500000u
X54 vccd1.t52 a_537154_685355.t34 io_analog[2].t37 vccd1.t14 sky130_fd_pr__pfet_01v8 ad=0p pd=0u as=0p ps=0u w=5e+06u l=500000u
X55 io_analog[10].t5 constant_gm_fingers_0/Vout.t19 vssa2.t76 vssa2.t75 sky130_fd_pr__nfet_01v8 ad=0p pd=0u as=0p ps=0u w=5e+06u l=1e+06u
X56 io_analog[2].t52 a_534722_685355.t2 sky130_fd_pr__cap_mim_m3_1 l=1.6e+07u w=1.6e+07u
X57 io_analog[10].t44 a_40125_693523.t37 vccd2.t128 vccd2.t127 sky130_fd_pr__pfet_01v8 ad=0p pd=0u as=0p ps=0u w=5e+06u l=500000u
X58 a_43026_690892.t48 io_analog[9].t1 a_42818_684860.t19 vssa2.t115 sky130_fd_pr__nfet_01v8 ad=0p pd=0u as=0p ps=0u w=5e+06u l=500000u
X59 vssa2.t78 constant_gm_fingers_0/Vout.t20 io_analog[10].t6 vssa2.t77 sky130_fd_pr__nfet_01v8 ad=0p pd=0u as=0p ps=0u w=5e+06u l=1e+06u
X60 vssa2.t151 a_541059_678436.t3 vssa2 sky130_fd_pr__res_xhigh_po_5p73 l=6.9e+07u
X61 vssa2.t7 a_41722_677112.t1 vssa2 sky130_fd_pr__res_xhigh_po_5p73 l=6.9e+07u
X62 a_540459_681940.t10 io_analog[0].t0 a_540271_687858.t4 vssa2.t100 sky130_fd_pr__nfet_01v8 ad=0p pd=0u as=0p ps=0u w=5e+06u l=500000u
X63 vccd2.t49 a_43026_690892.t56 a_40125_693523.t12 vccd2.t10 sky130_fd_pr__pfet_01v8 ad=0p pd=0u as=0p ps=0u w=5e+06u l=500000u
X64 vccd2.t11 a_43026_690892.t26 a_43026_690892.t27 vccd2.t10 sky130_fd_pr__pfet_01v8 ad=0p pd=0u as=0p ps=0u w=5e+06u l=500000u
X65 io_analog[10].t43 a_40125_693523.t38 vccd2.t108 vccd2.t107 sky130_fd_pr__pfet_01v8 ad=0p pd=0u as=0p ps=0u w=5e+06u l=500000u
X66 vccd1.t104 a_540271_687858.t37 a_540271_687858.t38 vccd1.t93 sky130_fd_pr__pfet_01v8 ad=0p pd=0u as=0p ps=0u w=5e+06u l=500000u
X67 a_540916_680434.t7 a_540916_680434.t6 a_540371_681998.t7 vssa2.t85 sky130_fd_pr__nfet_01v8 ad=0p pd=0u as=0p ps=0u w=2.5e+06u l=500000u
X68 vccd1.t53 a_537154_685355.t35 io_analog[2].t36 vccd1.t14 sky130_fd_pr__pfet_01v8 ad=0p pd=0u as=0p ps=0u w=5e+06u l=500000u
X69 vccd2.t139 a_43833_677960.t22 constant_gm_fingers_0/Vout.t3 vccd2.t16 sky130_fd_pr__pfet_01v8 ad=0p pd=0u as=0p ps=0u w=5e+06u l=1e+06u
X70 constant_gm_fingers_0/Vout.t1 a_43833_677960.t23 vccd2.t28 vccd2.t24 sky130_fd_pr__pfet_01v8 ad=0p pd=0u as=0p ps=0u w=5e+06u l=1e+06u
X71 vccd1.t103 a_540271_687858.t35 a_540271_687858.t36 vccd1.t93 sky130_fd_pr__pfet_01v8 ad=0p pd=0u as=0p ps=0u w=5e+06u l=500000u
X72 vccd2.t106 a_40125_693523.t39 io_analog[10].t42 vccd2.t105 sky130_fd_pr__pfet_01v8 ad=0p pd=0u as=0p ps=0u w=5e+06u l=500000u
X73 a_537154_685355.t5 io_analog[1].t1 a_540459_681940.t9 vssa2.t99 sky130_fd_pr__nfet_01v8 ad=0p pd=0u as=0p ps=0u w=5e+06u l=500000u
X74 a_43833_677960.t4 constant_gm_fingers_0/Vout.t21 a_41722_677112.t2 vssa2.t156 sky130_fd_pr__nfet_01v8 ad=0p pd=0u as=0p ps=0u w=5e+06u l=1e+06u
X75 a_41722_677112.t6 constant_gm_fingers_0/Vout.t22 a_43833_677960.t3 vssa2.t157 sky130_fd_pr__nfet_01v8 ad=0p pd=0u as=0p ps=0u w=5e+06u l=1e+06u
X76 io_analog[2].t49 a_540371_681998.t21 vssa2.t84 vssa2 sky130_fd_pr__nfet_01v8 ad=0p pd=0u as=0p ps=0u w=5e+06u l=1e+06u
X77 a_40125_693523.t10 io_analog[8].t1 a_42818_684860.t11 vssa2.t73 sky130_fd_pr__nfet_01v8 ad=0p pd=0u as=0p ps=0u w=5e+06u l=500000u
X78 io_analog[10].t54 a_37693_693523.t4 sky130_fd_pr__cap_mim_m3_1 l=1.6e+07u w=1.6e+07u
X79 a_43833_677960.t19 a_43833_677960.t18 vccd2.t15 vccd2.t14 sky130_fd_pr__pfet_01v8 ad=0p pd=0u as=0p ps=0u w=5e+06u l=1e+06u
X80 a_540459_681940.t11 io_analog[0].t1 a_540271_687858.t47 vssa2.t133 sky130_fd_pr__nfet_01v8 ad=0p pd=0u as=0p ps=0u w=5e+06u l=500000u
X81 a_40125_693523.t21 io_analog[8].t2 a_42818_684860.t21 vssa2.t123 sky130_fd_pr__nfet_01v8 ad=0p pd=0u as=0p ps=0u w=5e+06u l=500000u
X82 io_analog[2].t53 a_534722_685355.t3 sky130_fd_pr__cap_mim_m3_1 l=1.6e+07u w=1.6e+07u
X83 io_analog[10].t41 a_40125_693523.t40 vccd2.t126 vccd2.t125 sky130_fd_pr__pfet_01v8 ad=0p pd=0u as=0p ps=0u w=5e+06u l=500000u
X84 io_analog[10].t40 a_40125_693523.t41 vccd2.t124 vccd2.t123 sky130_fd_pr__pfet_01v8 ad=0p pd=0u as=0p ps=0u w=5e+06u l=500000u
X85 vccd1.t102 a_540271_687858.t55 a_537154_685355.t21 vccd1.t71 sky130_fd_pr__pfet_01v8 ad=0p pd=0u as=0p ps=0u w=5e+06u l=500000u
X86 vssa2.t142 a_540371_681998.t22 a_540459_681940.t25 vssa2 sky130_fd_pr__nfet_01v8 ad=0p pd=0u as=0p ps=0u w=5e+06u l=1e+06u
X87 a_40125_693523.t28 a_43026_690892.t57 vccd2.t156 vccd2.t45 sky130_fd_pr__pfet_01v8 ad=0p pd=0u as=0p ps=0u w=5e+06u l=500000u
X88 a_43026_690892.t25 a_43026_690892.t24 vccd2.t46 vccd2.t45 sky130_fd_pr__pfet_01v8 ad=0p pd=0u as=0p ps=0u w=5e+06u l=500000u
X89 vssa2.t65 constant_gm_fingers_0/Vout.t23 a_42818_684860.t9 vssa2.t64 sky130_fd_pr__nfet_01v8 ad=0p pd=0u as=0p ps=0u w=5e+06u l=1e+06u
X90 a_42818_684860.t10 constant_gm_fingers_0/Vout.t24 vssa2.t67 vssa2.t66 sky130_fd_pr__nfet_01v8 ad=0p pd=0u as=0p ps=0u w=5e+06u l=1e+06u
X91 vccd2.t122 a_40125_693523.t42 io_analog[10].t39 vccd2.t121 sky130_fd_pr__pfet_01v8 ad=0p pd=0u as=0p ps=0u w=5e+06u l=500000u
X92 a_43026_690892.t23 a_43026_690892.t22 vccd2.t143 vccd2.t142 sky130_fd_pr__pfet_01v8 ad=0p pd=0u as=0p ps=0u w=5e+06u l=500000u
X93 vccd1.t115 a_540916_680434.t16 a_540916_680434.t17 vccd1.t33 sky130_fd_pr__pfet_01v8 ad=0p pd=0u as=0p ps=0u w=5e+06u l=1e+06u
X94 a_40125_693523.t29 a_43026_690892.t58 vccd2.t157 vccd2.t142 sky130_fd_pr__pfet_01v8 ad=0p pd=0u as=0p ps=0u w=5e+06u l=500000u
X95 vssa2.t143 a_540371_681998.t23 a_540459_681940.t24 vssa2.t46 sky130_fd_pr__nfet_01v8 ad=0p pd=0u as=0p ps=0u w=5e+06u l=1e+06u
X96 vccd2.t110 a_40125_693523.t43 io_analog[10].t38 vccd2.t109 sky130_fd_pr__pfet_01v8 ad=0p pd=0u as=0p ps=0u w=5e+06u l=500000u
X97 io_analog[10].t37 a_40125_693523.t44 vccd2.t120 vccd2.t119 sky130_fd_pr__pfet_01v8 ad=0p pd=0u as=0p ps=0u w=5e+06u l=500000u
X98 vccd1.t101 a_540271_687858.t56 a_537154_685355.t20 vccd1.t66 sky130_fd_pr__pfet_01v8 ad=0p pd=0u as=0p ps=0u w=5e+06u l=500000u
X99 vccd1.t29 a_537154_685355.t36 io_analog[2].t35 vccd1.t2 sky130_fd_pr__pfet_01v8 ad=0p pd=0u as=0p ps=0u w=5e+06u l=500000u
X100 constant_gm_fingers_0/Vout.t9 constant_gm_fingers_0/Vout.t8 vssa2.t94 vssa2.t93 sky130_fd_pr__nfet_01v8 ad=0p pd=0u as=0p ps=0u w=1.25e+06u l=1e+06u
X101 constant_gm_fingers_0/Vout.t3 a_43833_677960.t24 vccd2.t38 vccd2.t37 sky130_fd_pr__pfet_01v8 ad=0p pd=0u as=0p ps=0u w=5e+06u l=1e+06u
X102 vccd2.t118 a_40125_693523.t45 io_analog[10].t36 vccd2.t117 sky130_fd_pr__pfet_01v8 ad=0p pd=0u as=0p ps=0u w=5e+06u l=500000u
X103 a_42818_684860.t22 io_analog[8].t3 a_40125_693523.t22 vssa2.t124 sky130_fd_pr__nfet_01v8 ad=0p pd=0u as=0p ps=0u w=5e+06u l=500000u
X104 io_analog[2].t48 a_540371_681998.t24 vssa2.t45 vssa2.t35 sky130_fd_pr__nfet_01v8 ad=0p pd=0u as=0p ps=0u w=5e+06u l=1e+06u
X105 vccd2.t31 a_43026_690892.t20 a_43026_690892.t21 vccd2.t30 sky130_fd_pr__pfet_01v8 ad=0p pd=0u as=0p ps=0u w=5e+06u l=500000u
X106 vccd2.t51 a_43026_690892.t59 a_40125_693523.t13 vccd2.t30 sky130_fd_pr__pfet_01v8 ad=0p pd=0u as=0p ps=0u w=5e+06u l=500000u
X107 vccd2.t152 a_43026_690892.t18 a_43026_690892.t19 vccd2.t52 sky130_fd_pr__pfet_01v8 ad=0p pd=0u as=0p ps=0u w=5e+06u l=500000u
X108 a_537154_685355.t28 a_534722_685355.t5 vssa2.t140 sky130_fd_pr__res_xhigh_po_5p73 l=1e+07u
X109 vssa2.t47 a_540371_681998.t25 a_540459_681940.t23 vssa2.t46 sky130_fd_pr__nfet_01v8 ad=0p pd=0u as=0p ps=0u w=5e+06u l=1e+06u
X110 io_analog[10].t35 a_40125_693523.t46 vccd2.t116 vccd2.t115 sky130_fd_pr__pfet_01v8 ad=0p pd=0u as=0p ps=0u w=5e+06u l=500000u
X111 vccd2.t53 a_43026_690892.t60 a_40125_693523.t14 vccd2.t52 sky130_fd_pr__pfet_01v8 ad=0p pd=0u as=0p ps=0u w=5e+06u l=500000u
X112 a_534722_685355.t7 a_537154_685355.t31 vssa2.t128 sky130_fd_pr__res_xhigh_po_5p73 l=1e+07u
X113 vccd1.t30 a_537154_685355.t37 io_analog[2].t34 vccd1.t2 sky130_fd_pr__pfet_01v8 ad=0p pd=0u as=0p ps=0u w=5e+06u l=500000u
X114 vccd1.t22 a_540916_680434.t14 a_540916_680434.t15 vccd1.t21 sky130_fd_pr__pfet_01v8 ad=0p pd=0u as=0p ps=0u w=5e+06u l=1e+06u
X115 vccd1.t100 a_540271_687858.t57 a_537154_685355.t19 vccd1.t93 sky130_fd_pr__pfet_01v8 ad=0p pd=0u as=0p ps=0u w=5e+06u l=500000u
X116 io_analog[2].t54 a_534722_685355.t0 sky130_fd_pr__cap_mim_m3_1 l=1.6e+07u w=1.6e+07u
X117 vssa2.t54 constant_gm_fingers_0/Vout.t25 a_42818_684860.t7 vssa2.t53 sky130_fd_pr__nfet_01v8 ad=0p pd=0u as=0p ps=0u w=5e+06u l=1e+06u
X118 vccd2.t114 a_40125_693523.t47 io_analog[10].t34 vccd2.t113 sky130_fd_pr__pfet_01v8 ad=0p pd=0u as=0p ps=0u w=5e+06u l=500000u
X119 a_540916_680434.t0 a_540371_681998.t26 a_541059_678436.t8 vssa2.t79 sky130_fd_pr__nfet_01v8 ad=0p pd=0u as=0p ps=0u w=5e+06u l=1e+06u
X120 a_540371_681998.t15 a_540371_681998.t14 vssa2.t52 vssa2.t51 sky130_fd_pr__nfet_01v8 ad=0p pd=0u as=0p ps=0u w=1.25e+06u l=1e+06u
X121 a_42818_684860.t18 io_analog[9].t2 a_43026_690892.t47 vssa2.t114 sky130_fd_pr__nfet_01v8 ad=0p pd=0u as=0p ps=0u w=5e+06u l=500000u
X122 a_42818_684860.t17 io_analog[9].t3 a_43026_690892.t44 vssa2.t113 sky130_fd_pr__nfet_01v8 ad=0p pd=0u as=0p ps=0u w=5e+06u l=500000u
X123 vccd1.t32 a_537154_685355.t38 io_analog[2].t33 vccd1.t31 sky130_fd_pr__pfet_01v8 ad=0p pd=0u as=0p ps=0u w=5e+06u l=500000u
X124 io_analog[10].t33 a_40125_693523.t48 vccd2.t112 vccd2.t111 sky130_fd_pr__pfet_01v8 ad=0p pd=0u as=0p ps=0u w=5e+06u l=500000u
X125 vccd1.t36 a_537154_685355.t39 io_analog[2].t32 vccd1.t35 sky130_fd_pr__pfet_01v8 ad=0p pd=0u as=0p ps=0u w=5e+06u l=500000u
X126 vccd1.t99 a_540271_687858.t11 a_540271_687858.t12 vccd1.t93 sky130_fd_pr__pfet_01v8 ad=0p pd=0u as=0p ps=0u w=5e+06u l=500000u
X127 a_537154_685355.t29 io_analog[1].t2 a_540459_681940.t13 vssa2.t141 sky130_fd_pr__nfet_01v8 ad=0p pd=0u as=0p ps=0u w=5e+06u l=500000u
X128 io_analog[2].t47 a_540371_681998.t27 vssa2.t81 vssa2.t80 sky130_fd_pr__nfet_01v8 ad=0p pd=0u as=0p ps=0u w=5e+06u l=1e+06u
X129 io_analog[10].t2 constant_gm_fingers_0/Vout.t26 vssa2.t56 vssa2.t55 sky130_fd_pr__nfet_01v8 ad=0p pd=0u as=0p ps=0u w=5e+06u l=1e+06u
X130 a_540459_681940.t12 io_analog[0].t2 a_540271_687858.t48 vssa2.t134 sky130_fd_pr__nfet_01v8 ad=0p pd=0u as=0p ps=0u w=5e+06u l=500000u
X131 io_analog[10].t9 constant_gm_fingers_0/Vout.t27 vssa2.t120 vssa2.t119 sky130_fd_pr__nfet_01v8 ad=0p pd=0u as=0p ps=0u w=5e+06u l=1e+06u
X132 vccd1.t37 a_537154_685355.t40 io_analog[2].t31 vccd1.t31 sky130_fd_pr__pfet_01v8 ad=0p pd=0u as=0p ps=0u w=5e+06u l=500000u
X133 vssa2.t6 constant_gm_fingers_0/Vout.t6 constant_gm_fingers_0/Vout.t7 vssa2.t5 sky130_fd_pr__nfet_01v8 ad=0p pd=0u as=0p ps=0u w=1.25e+06u l=1e+06u
X134 vccd1.t16 a_540916_680434.t24 a_540371_681998.t3 vccd1.t0 sky130_fd_pr__pfet_01v8 ad=0p pd=0u as=0p ps=0u w=5e+06u l=1e+06u
X135 a_42818_684860.t23 io_analog[8].t4 a_40125_693523.t23 vssa2.t126 sky130_fd_pr__nfet_01v8 ad=0p pd=0u as=0p ps=0u w=5e+06u l=500000u
X136 vccd1.t38 a_537154_685355.t41 io_analog[2].t30 vccd1.t35 sky130_fd_pr__pfet_01v8 ad=0p pd=0u as=0p ps=0u w=5e+06u l=500000u
X137 io_analog[10].t32 a_40125_693523.t49 vccd2.t104 vccd2.t103 sky130_fd_pr__pfet_01v8 ad=0p pd=0u as=0p ps=0u w=5e+06u l=500000u
X138 vccd1.t63 a_537154_685355.t42 io_analog[2].t29 vccd1.t27 sky130_fd_pr__pfet_01v8 ad=0p pd=0u as=0p ps=0u w=5e+06u l=500000u
X139 a_43833_677960.t2 constant_gm_fingers_0/Vout.t28 a_41722_677112.t7 vssa2.t121 sky130_fd_pr__nfet_01v8 ad=0p pd=0u as=0p ps=0u w=5e+06u l=1e+06u
X140 vccd2.t102 a_40125_693523.t50 io_analog[10].t31 vccd2.t101 sky130_fd_pr__pfet_01v8 ad=0p pd=0u as=0p ps=0u w=5e+06u l=500000u
X141 vccd1.t98 a_540271_687858.t58 a_537154_685355.t18 vccd1.t68 sky130_fd_pr__pfet_01v8 ad=0p pd=0u as=0p ps=0u w=5e+06u l=500000u
X142 vssa2.t0 a_41722_677112.t0 vssa2 sky130_fd_pr__res_xhigh_po_5p73 l=6.9e+07u
X143 io_analog[10].t30 a_40125_693523.t51 vccd2.t100 vccd2.t99 sky130_fd_pr__pfet_01v8 ad=0p pd=0u as=0p ps=0u w=5e+06u l=500000u
X144 vccd2.t1 a_43026_690892.t16 a_43026_690892.t17 vccd2.t0 sky130_fd_pr__pfet_01v8 ad=0p pd=0u as=0p ps=0u w=5e+06u l=500000u
X145 a_43026_690892.t43 io_analog[9].t4 a_42818_684860.t16 vssa2.t112 sky130_fd_pr__nfet_01v8 ad=0p pd=0u as=0p ps=0u w=5e+06u l=500000u
X146 vccd2.t54 a_43026_690892.t61 a_40125_693523.t15 vccd2.t0 sky130_fd_pr__pfet_01v8 ad=0p pd=0u as=0p ps=0u w=5e+06u l=500000u
X147 vccd1.t64 a_537154_685355.t43 io_analog[2].t28 vccd1.t27 sky130_fd_pr__pfet_01v8 ad=0p pd=0u as=0p ps=0u w=5e+06u l=500000u
X148 a_37693_693523.t2 a_40125_693523.t17 vssa2.t44 sky130_fd_pr__res_xhigh_po_5p73 l=1e+07u
X149 vccd2.t98 a_40125_693523.t52 io_analog[10].t29 vccd2.t97 sky130_fd_pr__pfet_01v8 ad=0p pd=0u as=0p ps=0u w=5e+06u l=500000u
X150 vccd1.t95 a_540271_687858.t31 a_540271_687858.t32 vccd1.t68 sky130_fd_pr__pfet_01v8 ad=0p pd=0u as=0p ps=0u w=5e+06u l=500000u
X151 vssa2.t145 constant_gm_fingers_0/Vout.t29 a_42818_684860.t26 vssa2.t144 sky130_fd_pr__nfet_01v8 ad=0p pd=0u as=0p ps=0u w=5e+06u l=1e+06u
X152 a_540459_681940.t8 io_analog[0].t3 a_540271_687858.t3 vssa2.t59 sky130_fd_pr__nfet_01v8 ad=0p pd=0u as=0p ps=0u w=5e+06u l=500000u
X153 a_43833_677960.t9 a_43833_677960.t8 constant_gm_fingers_0/Vout.t12 vssa2.t86 sky130_fd_pr__nfet_01v8 ad=0p pd=0u as=0p ps=0u w=2.5e+06u l=500000u
X154 vccd1.t97 a_540271_687858.t33 a_540271_687858.t34 vccd1.t68 sky130_fd_pr__pfet_01v8 ad=0p pd=0u as=0p ps=0u w=5e+06u l=500000u
X155 vssa2.t68 a_540371_681998.t28 a_540459_681940.t22 vssa2 sky130_fd_pr__nfet_01v8 ad=0p pd=0u as=0p ps=0u w=5e+06u l=1e+06u
X156 io_analog[2].t46 a_540371_681998.t29 vssa2.t70 vssa2.t69 sky130_fd_pr__nfet_01v8 ad=0p pd=0u as=0p ps=0u w=5e+06u l=1e+06u
X157 vssa2.t41 a_541059_678436.t0 vssa2 sky130_fd_pr__res_xhigh_po_5p73 l=6.9e+07u
X158 io_analog[10].t28 a_40125_693523.t53 vccd2.t96 vccd2.t95 sky130_fd_pr__pfet_01v8 ad=0p pd=0u as=0p ps=0u w=5e+06u l=500000u
X159 vssa2.t147 constant_gm_fingers_0/Vout.t30 io_analog[10].t51 vssa2.t146 sky130_fd_pr__nfet_01v8 ad=0p pd=0u as=0p ps=0u w=5e+06u l=1e+06u
X160 vssa2.t125 a_41722_677112.t8 vssa2 sky130_fd_pr__res_xhigh_po_5p73 l=6.9e+07u
X161 vccd1.t11 a_540916_680434.t12 a_540916_680434.t13 vccd1.t10 sky130_fd_pr__pfet_01v8 ad=0p pd=0u as=0p ps=0u w=5e+06u l=1e+06u
X162 vccd1.t96 a_540271_687858.t59 a_537154_685355.t17 vccd1.t74 sky130_fd_pr__pfet_01v8 ad=0p pd=0u as=0p ps=0u w=5e+06u l=500000u
X163 vssa2.t154 a_540371_681998.t30 a_540459_681940.t21 vssa2.t46 sky130_fd_pr__nfet_01v8 ad=0p pd=0u as=0p ps=0u w=5e+06u l=1e+06u
X164 io_analog[10].t27 a_40125_693523.t54 vccd2.t94 vccd2.t93 sky130_fd_pr__pfet_01v8 ad=0p pd=0u as=0p ps=0u w=5e+06u l=500000u
X165 vccd2.t92 a_40125_693523.t55 io_analog[10].t26 vccd2.t91 sky130_fd_pr__pfet_01v8 ad=0p pd=0u as=0p ps=0u w=5e+06u l=500000u
X166 a_540371_681998.t13 a_540371_681998.t12 vssa2.t153 vssa2.t152 sky130_fd_pr__nfet_01v8 ad=0p pd=0u as=0p ps=0u w=1.25e+06u l=1e+06u
X167 a_43026_690892.t15 a_43026_690892.t14 vccd2.t149 vccd2.t55 sky130_fd_pr__pfet_01v8 ad=0p pd=0u as=0p ps=0u w=5e+06u l=500000u
X168 a_40125_693523.t16 a_43026_690892.t62 vccd2.t56 vccd2.t55 sky130_fd_pr__pfet_01v8 ad=0p pd=0u as=0p ps=0u w=5e+06u l=500000u
X169 vccd1.t65 a_537154_685355.t44 io_analog[2].t27 vccd1.t18 sky130_fd_pr__pfet_01v8 ad=0p pd=0u as=0p ps=0u w=5e+06u l=500000u
X170 vssa2.t155 a_540371_681998.t31 a_540459_681940.t20 vssa2 sky130_fd_pr__nfet_01v8 ad=0p pd=0u as=0p ps=0u w=5e+06u l=1e+06u
X171 vccd2.t158 a_43833_677960.t25 constant_gm_fingers_0/Vout.t1 vccd2.t32 sky130_fd_pr__pfet_01v8 ad=0p pd=0u as=0p ps=0u w=5e+06u l=1e+06u
X172 vccd1.t94 a_540271_687858.t60 a_537154_685355.t16 vccd1.t93 sky130_fd_pr__pfet_01v8 ad=0p pd=0u as=0p ps=0u w=5e+06u l=500000u
X173 vccd1.t49 a_540916_680434.t10 a_540916_680434.t11 vccd1.t8 sky130_fd_pr__pfet_01v8 ad=0p pd=0u as=0p ps=0u w=5e+06u l=1e+06u
X174 vccd2.t3 a_43026_690892.t63 a_40125_693523.t0 vccd2.t2 sky130_fd_pr__pfet_01v8 ad=0p pd=0u as=0p ps=0u w=5e+06u l=500000u
X175 vccd2.t148 a_43026_690892.t12 a_43026_690892.t13 vccd2.t2 sky130_fd_pr__pfet_01v8 ad=0p pd=0u as=0p ps=0u w=5e+06u l=500000u
X176 vccd1.t92 a_540271_687858.t29 a_540271_687858.t30 vccd1.t74 sky130_fd_pr__pfet_01v8 ad=0p pd=0u as=0p ps=0u w=5e+06u l=500000u
X177 vccd2.t155 a_43833_677960.t16 a_43833_677960.t17 vccd2.t26 sky130_fd_pr__pfet_01v8 ad=0p pd=0u as=0p ps=0u w=5e+06u l=1e+06u
X178 vccd1.t91 a_540271_687858.t27 a_540271_687858.t28 vccd1.t74 sky130_fd_pr__pfet_01v8 ad=0p pd=0u as=0p ps=0u w=5e+06u l=500000u
X179 a_540916_680434.t2 a_540371_681998.t32 a_541059_678436.t7 vssa2.t95 sky130_fd_pr__nfet_01v8 ad=0p pd=0u as=0p ps=0u w=5e+06u l=1e+06u
X180 constant_gm_fingers_0/Vout.t13 a_43833_677960.t6 a_43833_677960.t7 vssa2.t122 sky130_fd_pr__nfet_01v8 ad=0p pd=0u as=0p ps=0u w=2.5e+06u l=500000u
X181 io_analog[10].t25 a_40125_693523.t56 vccd2.t90 vccd2.t89 sky130_fd_pr__pfet_01v8 ad=0p pd=0u as=0p ps=0u w=5e+06u l=500000u
X182 a_41722_677112.t3 constant_gm_fingers_0/Vout.t31 a_43833_677960.t1 vssa2.t148 sky130_fd_pr__nfet_01v8 ad=0p pd=0u as=0p ps=0u w=5e+06u l=1e+06u
X183 vccd1.t116 a_540916_680434.t25 a_540371_681998.t2 vccd1.t47 sky130_fd_pr__pfet_01v8 ad=0p pd=0u as=0p ps=0u w=5e+06u l=1e+06u
X184 io_analog[2].t45 a_540371_681998.t33 vssa2.t96 vssa2.t28 sky130_fd_pr__nfet_01v8 ad=0p pd=0u as=0p ps=0u w=5e+06u l=1e+06u
X185 a_43026_690892.t46 io_analog[9].t5 a_42818_684860.t15 vssa2.t111 sky130_fd_pr__nfet_01v8 ad=0p pd=0u as=0p ps=0u w=5e+06u l=500000u
X186 vccd1.t17 a_537154_685355.t45 io_analog[2].t26 vccd1.t2 sky130_fd_pr__pfet_01v8 ad=0p pd=0u as=0p ps=0u w=5e+06u l=500000u
X187 a_42818_684860.t27 constant_gm_fingers_0/Vout.t32 vssa2.t150 vssa2.t149 sky130_fd_pr__nfet_01v8 ad=0p pd=0u as=0p ps=0u w=5e+06u l=1e+06u
X188 vccd1.t19 a_537154_685355.t46 io_analog[2].t25 vccd1.t18 sky130_fd_pr__pfet_01v8 ad=0p pd=0u as=0p ps=0u w=5e+06u l=500000u
X189 vccd2.t88 a_40125_693523.t57 io_analog[10].t24 vccd2.t87 sky130_fd_pr__pfet_01v8 ad=0p pd=0u as=0p ps=0u w=5e+06u l=500000u
X190 vccd2.t86 a_40125_693523.t58 io_analog[10].t23 vccd2.t85 sky130_fd_pr__pfet_01v8 ad=0p pd=0u as=0p ps=0u w=5e+06u l=500000u
X191 a_42818_684860.t8 io_analog[8].t5 a_40125_693523.t7 vssa2.t57 sky130_fd_pr__nfet_01v8 ad=0p pd=0u as=0p ps=0u w=5e+06u l=500000u
X192 vccd1.t20 a_537154_685355.t47 io_analog[2].t24 vccd1.t4 sky130_fd_pr__pfet_01v8 ad=0p pd=0u as=0p ps=0u w=5e+06u l=500000u
X193 a_37693_693523.t1 a_40125_693523.t6 vssa2.t44 sky130_fd_pr__res_xhigh_po_5p73 l=1e+07u
X194 a_42818_684860.t24 constant_gm_fingers_0/Vout.t33 vssa2.t130 vssa2.t129 sky130_fd_pr__nfet_01v8 ad=0p pd=0u as=0p ps=0u w=5e+06u l=1e+06u
X195 vssa2.t92 a_540371_681998.t34 a_540459_681940.t19 vssa2.t91 sky130_fd_pr__nfet_01v8 ad=0p pd=0u as=0p ps=0u w=5e+06u l=1e+06u
X196 io_analog[10].t22 a_40125_693523.t59 vccd2.t84 vccd2.t83 sky130_fd_pr__pfet_01v8 ad=0p pd=0u as=0p ps=0u w=5e+06u l=500000u
X197 io_analog[10].t55 a_37693_693523.t3 sky130_fd_pr__cap_mim_m3_1 l=1.6e+07u w=1.6e+07u
X198 vccd1.t3 a_537154_685355.t48 io_analog[2].t23 vccd1.t2 sky130_fd_pr__pfet_01v8 ad=0p pd=0u as=0p ps=0u w=5e+06u l=500000u
X199 vssa2.t132 constant_gm_fingers_0/Vout.t34 io_analog[10].t50 vssa2.t131 sky130_fd_pr__nfet_01v8 ad=0p pd=0u as=0p ps=0u w=5e+06u l=1e+06u
X200 vccd1.t5 a_537154_685355.t49 io_analog[2].t22 vccd1.t4 sky130_fd_pr__pfet_01v8 ad=0p pd=0u as=0p ps=0u w=5e+06u l=500000u
X201 vccd1.t7 a_537154_685355.t50 io_analog[2].t21 vccd1.t6 sky130_fd_pr__pfet_01v8 ad=0p pd=0u as=0p ps=0u w=5e+06u l=500000u
X202 vccd2.t82 a_40125_693523.t60 io_analog[10].t21 vccd2.t81 sky130_fd_pr__pfet_01v8 ad=0p pd=0u as=0p ps=0u w=5e+06u l=500000u
X203 vccd1.t90 a_540271_687858.t61 a_537154_685355.t15 vccd1.t68 sky130_fd_pr__pfet_01v8 ad=0p pd=0u as=0p ps=0u w=5e+06u l=500000u
X204 vssa2.t17 constant_gm_fingers_0/Vout.t35 io_analog[10].t0 vssa2.t16 sky130_fd_pr__nfet_01v8 ad=0p pd=0u as=0p ps=0u w=5e+06u l=1e+06u
X205 vccd1.t89 a_540271_687858.t62 a_537154_685355.t14 vccd1.t77 sky130_fd_pr__pfet_01v8 ad=0p pd=0u as=0p ps=0u w=5e+06u l=500000u
X206 a_537154_685355.t4 io_analog[1].t3 a_540459_681940.t6 vssa2.t48 sky130_fd_pr__nfet_01v8 ad=0p pd=0u as=0p ps=0u w=5e+06u l=500000u
X207 a_540916_680434.t1 a_540371_681998.t35 a_541059_678436.t6 vssa2 sky130_fd_pr__nfet_01v8 ad=0p pd=0u as=0p ps=0u w=5e+06u l=1e+06u
X208 constant_gm_fingers_0/Vout.t5 constant_gm_fingers_0/Vout.t4 vssa2.t10 vssa2.t9 sky130_fd_pr__nfet_01v8 ad=0p pd=0u as=0p ps=0u w=1.25e+06u l=1e+06u
X209 io_analog[2].t44 a_540371_681998.t36 vssa2.t12 vssa2 sky130_fd_pr__nfet_01v8 ad=0p pd=0u as=0p ps=0u w=5e+06u l=1e+06u
X210 vccd2.t80 a_40125_693523.t61 io_analog[10].t20 vccd2.t79 sky130_fd_pr__pfet_01v8 ad=0p pd=0u as=0p ps=0u w=5e+06u l=500000u
X211 a_540459_681940.t1 io_analog[0].t4 a_540271_687858.t1 vssa2.t2 sky130_fd_pr__nfet_01v8 ad=0p pd=0u as=0p ps=0u w=5e+06u l=500000u
X212 vccd1.t54 a_537154_685355.t51 io_analog[2].t20 vccd1.t35 sky130_fd_pr__pfet_01v8 ad=0p pd=0u as=0p ps=0u w=5e+06u l=500000u
X213 constant_gm_fingers_0/Vout.t2 a_43833_677960.t26 vccd2.t36 vccd2.t14 sky130_fd_pr__pfet_01v8 ad=0p pd=0u as=0p ps=0u w=5e+06u l=1e+06u
X214 vccd1.t55 a_537154_685355.t52 io_analog[2].t19 vccd1.t6 sky130_fd_pr__pfet_01v8 ad=0p pd=0u as=0p ps=0u w=5e+06u l=500000u
X215 vccd1.t56 a_537154_685355.t53 io_analog[2].t18 vccd1.t23 sky130_fd_pr__pfet_01v8 ad=0p pd=0u as=0p ps=0u w=5e+06u l=500000u
X216 vccd1.t44 a_537154_685355.t54 io_analog[2].t17 vccd1.t25 sky130_fd_pr__pfet_01v8 ad=0p pd=0u as=0p ps=0u w=5e+06u l=500000u
X217 a_40125_693523.t5 a_37693_693523.t0 vssa2.t32 sky130_fd_pr__res_xhigh_po_5p73 l=1e+07u
X218 vccd1.t88 a_540271_687858.t21 a_540271_687858.t22 vccd1.t77 sky130_fd_pr__pfet_01v8 ad=0p pd=0u as=0p ps=0u w=5e+06u l=500000u
X219 vccd1.t87 a_540271_687858.t19 a_540271_687858.t20 vccd1.t68 sky130_fd_pr__pfet_01v8 ad=0p pd=0u as=0p ps=0u w=5e+06u l=500000u
X220 vccd1.t86 a_540271_687858.t17 a_540271_687858.t18 vccd1.t77 sky130_fd_pr__pfet_01v8 ad=0p pd=0u as=0p ps=0u w=5e+06u l=500000u
X221 a_537154_685355.t0 io_analog[1].t4 a_540459_681940.t2 vssa2.t20 sky130_fd_pr__nfet_01v8 ad=0p pd=0u as=0p ps=0u w=5e+06u l=500000u
X222 vccd2.t78 a_40125_693523.t62 io_analog[10].t19 vccd2.t77 sky130_fd_pr__pfet_01v8 ad=0p pd=0u as=0p ps=0u w=5e+06u l=500000u
X223 a_42818_684860.t1 constant_gm_fingers_0/Vout.t36 vssa2.t19 vssa2.t18 sky130_fd_pr__nfet_01v8 ad=0p pd=0u as=0p ps=0u w=5e+06u l=1e+06u
X224 vccd1.t85 a_540271_687858.t63 a_537154_685355.t13 vccd1.t74 sky130_fd_pr__pfet_01v8 ad=0p pd=0u as=0p ps=0u w=5e+06u l=500000u
X225 vccd1.t45 a_537154_685355.t55 io_analog[2].t16 vccd1.t35 sky130_fd_pr__pfet_01v8 ad=0p pd=0u as=0p ps=0u w=5e+06u l=500000u
X226 vccd1.t46 a_537154_685355.t56 io_analog[2].t15 vccd1.t27 sky130_fd_pr__pfet_01v8 ad=0p pd=0u as=0p ps=0u w=5e+06u l=500000u
X227 vccd1.t24 a_537154_685355.t57 io_analog[2].t14 vccd1.t23 sky130_fd_pr__pfet_01v8 ad=0p pd=0u as=0p ps=0u w=5e+06u l=500000u
X228 io_analog[10].t18 a_40125_693523.t63 vccd2.t76 vccd2.t75 sky130_fd_pr__pfet_01v8 ad=0p pd=0u as=0p ps=0u w=5e+06u l=500000u
X229 vccd1.t26 a_537154_685355.t58 io_analog[2].t13 vccd1.t25 sky130_fd_pr__pfet_01v8 ad=0p pd=0u as=0p ps=0u w=5e+06u l=500000u
X230 vssa2.t13 a_540371_681998.t37 a_540459_681940.t18 vssa2 sky130_fd_pr__nfet_01v8 ad=0p pd=0u as=0p ps=0u w=5e+06u l=1e+06u