* NGSPICE file created from flashADC_flat.ext - technology: sky130A

.subckt flashADC_flat VFS OUT3 OUT2 OUT1 OUT0 VL VDD CLK VIN GND VV15 VV14 VV13 VV12 VV11 VV10 VV9 VV8 VV7 VV6 VV5 VV4 VV3 VV2 VV1 VV16 I14 I13 I12
+ I11 I10 I9 I8 I7 I6 I5 I4 I3 I2 I1 I0 I15
X0 GND.t1404 frontAnalog_v0p0p1_7.x65.X frontAnalog_v0p0p1_7.RSfetsym_0.x2.Y GND.t1403 sky130_fd_pr__nfet_01v8 ad=0.169 pd=1.82 as=0.0878 ps=0.92 w=0.65 l=0.15
X1 OUT3.t63 16to4_PriorityEncoder_v0p0p1_0.x43.Y VDD.t1262 VDD.t1261 sky130_fd_pr__pfet_01v8_hvt ad=0.135 pd=1.27 as=0.135 ps=1.27 w=1 l=0.15
X2 VDD.t122 frontAnalog_v0p0p1_15.x63.A.t4 a_57123_n85079# VDD.t121 sky130_fd_pr__pfet_01v8_hvt ad=0.115 pd=1.08 as=0.205 ps=2.1 w=0.79 l=0.15
X3 GND.t801 16to4_PriorityEncoder_v0p0p1_0.x25.A OUT0.t127 GND.t800 sky130_fd_pr__nfet_01v8 ad=0.0878 pd=0.92 as=0.0878 ps=0.92 w=0.65 l=0.15
X4 VDD.t1337 frontAnalog_v0p0p1_10.x63.X I5.t3 VDD.t1332 sky130_fd_pr__pfet_01v8 ad=0.58 pd=4.58 as=0.29 ps=2.29 w=2 l=0.25
X5 VDD.t852 16to4_PriorityEncoder_v0p0p1_0.x36.Y OUT2.t63 VDD.t851 sky130_fd_pr__pfet_01v8_hvt ad=0.135 pd=1.27 as=0.135 ps=1.27 w=1 l=0.15
X6 VFS.t2 VV16.t6 GND.t72 sky130_fd_pr__res_xhigh_po_5p73 l=2.52
X7 a_78315_n41309# 16to4_PriorityEncoder_v0p0p1_0.x5.x14.B a_78243_n41309# VDD.t179 sky130_fd_pr__pfet_01v8_hvt ad=0.0693 pd=0.75 as=0.0441 ps=0.63 w=0.42 l=0.15
X8 a_16719_n13117.t23 a_16599_n13205.t4 a_16541_n13117.t11 GND.t129 sky130_fd_pr__nfet_01v8_lvt ad=1.16 pd=8.58 as=1.16 ps=8.58 w=4 l=0.6
X9 w_55000_n56928# CLK.t0 frontAnalog_v0p0p1_10.x65.A.t1 VDD.t199 sky130_fd_pr__pfet_01v8_lvt ad=1.16 pd=8.58 as=1.16 ps=8.58 w=4 l=0.35
X10 VV4.t15 VV3.t14 GND.t49 sky130_fd_pr__res_xhigh_po_5p73 l=2.52
X11 frontAnalog_v0p0p1_3.x65.X a_57123_n13359# VDD.t505 VDD.t504 sky130_fd_pr__pfet_01v8_hvt ad=0.205 pd=2.1 as=0.115 ps=1.08 w=0.79 l=0.15
X12 VDD.t493 frontAnalog_v0p0p1_9.x63.X frontAnalog_v0p0p1_9.RSfetsym_0.x1.Y VDD.t486 sky130_fd_pr__pfet_01v8_hvt ad=0.135 pd=1.27 as=0.135 ps=1.27 w=1 l=0.15
X13 OUT3.t127 16to4_PriorityEncoder_v0p0p1_0.x43.Y GND.t1341 GND.t1340 sky130_fd_pr__nfet_01v8 ad=0.0878 pd=0.92 as=0.0878 ps=0.92 w=0.65 l=0.15
X14 frontAnalog_v0p0p1_14.x65.A.t3 frontAnalog_v0p0p1_14.x63.A.t4 a_55268_n79536# GND.t426 sky130_fd_pr__nfet_01v8_lvt ad=0.29 pd=2.58 as=0.29 ps=2.58 w=1 l=0.15
X15 OUT2.t127 16to4_PriorityEncoder_v0p0p1_0.x36.Y GND.t943 GND.t942 sky130_fd_pr__nfet_01v8 ad=0.0878 pd=0.92 as=0.0878 ps=0.92 w=0.65 l=0.15
X16 frontAnalog_v0p0p1_5.RSfetsym_0.QN.t1 frontAnalog_v0p0p1_5.RSfetsym_0.x1.Y GND.t1376 GND.t658 sky130_fd_pr__nfet_01v8 ad=0.58 pd=4.58 as=0.58 ps=4.58 w=2 l=0.25
X17 16to4_PriorityEncoder_v0p0p1_0.x29.A 16to4_PriorityEncoder_v0p0p1_0.x28.A VDD.t368 VDD.t367 sky130_fd_pr__pfet_01v8_hvt ad=0.135 pd=1.27 as=0.26 ps=2.52 w=1 l=0.15
X18 VV11.t11 VV10.t11 GND.t73 sky130_fd_pr__res_xhigh_po_5p73 l=2.52
X19 frontAnalog_v0p0p1_6.x63.X a_57123_n31079# GND.t220 GND.t219 sky130_fd_pr__nfet_01v8 ad=0.135 pd=1.56 as=0.0754 ps=0.81 w=0.52 l=0.15
X20 GND.t1339 16to4_PriorityEncoder_v0p0p1_0.x43.Y OUT3.t126 GND.t1338 sky130_fd_pr__nfet_01v8 ad=0.0878 pd=0.92 as=0.0878 ps=0.92 w=0.65 l=0.15
X21 GND.t1114 frontAnalog_v0p0p1_8.x63.X frontAnalog_v0p0p1_8.RSfetsym_0.x1.Y GND.t1109 sky130_fd_pr__nfet_01v8 ad=0.169 pd=1.82 as=0.0878 ps=0.92 w=0.65 l=0.15
X22 GND.t941 16to4_PriorityEncoder_v0p0p1_0.x36.Y OUT2.t126 GND.t940 sky130_fd_pr__nfet_01v8 ad=0.0878 pd=0.92 as=0.0878 ps=0.92 w=0.65 l=0.15
X23 OUT3.t62 16to4_PriorityEncoder_v0p0p1_0.x43.Y VDD.t1260 VDD.t1259 sky130_fd_pr__pfet_01v8_hvt ad=0.135 pd=1.27 as=0.135 ps=1.27 w=1 l=0.15
X24 VV2.t0 VV1.t3 GND.t68 sky130_fd_pr__res_xhigh_po_5p73 l=2.52
X25 a_53630_n84996# VV1.t16 w_55000_n83928# GND.t393 sky130_fd_pr__nfet_01v8_lvt ad=1.16 pd=8.58 as=1.16 ps=8.58 w=4 l=0.6
X26 16to4_PriorityEncoder_v0p0p1_0.x29.Y 16to4_PriorityEncoder_v0p0p1_0.x29.A GND.t1504 GND.t1503 sky130_fd_pr__nfet_01v8 ad=0.0878 pd=0.92 as=0.0878 ps=0.92 w=0.65 l=0.15
X27 GND.t25 I0.t5 a_77605_n47345# GND.t24 sky130_fd_pr__nfet_01v8 ad=0.102 pd=0.99 as=0.0567 ps=0.69 w=0.42 l=0.15
X28 VDD.t710 16to4_PriorityEncoder_v0p0p1_0.x25.A OUT0.t63 VDD.t709 sky130_fd_pr__pfet_01v8_hvt ad=0.135 pd=1.27 as=0.135 ps=1.27 w=1 l=0.15
X29 VDD.t1258 16to4_PriorityEncoder_v0p0p1_0.x43.Y OUT3.t61 VDD.t1257 sky130_fd_pr__pfet_01v8_hvt ad=0.135 pd=1.27 as=0.135 ps=1.27 w=1 l=0.15
X30 a_55268_n63336# CLK.t1 GND.t234 GND.t233 sky130_fd_pr__nfet_01v8_lvt ad=0.29 pd=2.58 as=0.29 ps=2.58 w=1 l=0.15
X31 GND.t1431 16to4_PriorityEncoder_v0p0p1_0.x5.x17.A a_78349_n43045# GND.t516 sky130_fd_pr__nfet_01v8 ad=0.102 pd=0.99 as=0.0567 ps=0.69 w=0.42 l=0.15
X32 frontAnalog_v0p0p1_14.RSfetsym_0.x1.Y frontAnalog_v0p0p1_14.x63.X VDD.t1124 VDD.t1117 sky130_fd_pr__pfet_01v8_hvt ad=0.135 pd=1.27 as=0.26 ps=2.52 w=1 l=0.15
X33 a_77605_n51335# I2.t5 VDD.t29 VDD.t28 sky130_fd_pr__pfet_01v8_hvt ad=0.0735 pd=0.77 as=0.109 ps=1.36 w=0.42 l=0.15
X34 frontAnalog_v0p0p1_5.RSfetsym_0.x1.Y frontAnalog_v0p0p1_5.x63.X GND.t218 GND.t214 sky130_fd_pr__nfet_01v8 ad=0.0878 pd=0.92 as=0.169 ps=1.82 w=0.65 l=0.15
X35 VDD.t1336 frontAnalog_v0p0p1_10.x63.X frontAnalog_v0p0p1_10.RSfetsym_0.x1.Y VDD.t1330 sky130_fd_pr__pfet_01v8_hvt ad=0.26 pd=2.52 as=0.135 ps=1.27 w=1 l=0.15
X36 VDD.t70 VDD.t68 a_77605_n43295# VDD.t69 sky130_fd_pr__pfet_01v8_hvt ad=0.312 pd=1.68 as=0.0588 ps=0.7 w=0.42 l=0.15
X37 VDD.t1012 16to4_PriorityEncoder_v0p0p1_0.x29.Y OUT1.t63 VDD.t1011 sky130_fd_pr__pfet_01v8_hvt ad=0.135 pd=1.27 as=0.135 ps=1.27 w=1 l=0.15
X38 GND.t1337 16to4_PriorityEncoder_v0p0p1_0.x43.Y OUT3.t125 GND.t1336 sky130_fd_pr__nfet_01v8 ad=0.0878 pd=0.92 as=0.0878 ps=0.92 w=0.65 l=0.15
X39 GND.t111 frontAnalog_v0p0p1_8.RSfetsym_0.QN.t5 a_59577_n46683# GND.t110 sky130_fd_pr__nfet_01v8 ad=0.29 pd=2.58 as=0.29 ps=2.58 w=1 l=0.15
X40 GND.t939 16to4_PriorityEncoder_v0p0p1_0.x36.Y OUT2.t125 GND.t938 sky130_fd_pr__nfet_01v8 ad=0.0878 pd=0.92 as=0.0878 ps=0.92 w=0.65 l=0.15
X41 GND.t959 I5.t5 a_59578_n56970# GND.t958 sky130_fd_pr__nfet_01v8 ad=0.29 pd=2.58 as=0.29 ps=2.58 w=1 l=0.15
X42 a_53630_n41796# VV9.t16 w_55000_n40728# GND.t61 sky130_fd_pr__nfet_01v8_lvt ad=1.16 pd=8.58 as=1.16 ps=8.58 w=4 l=0.6
X43 VDD.t850 16to4_PriorityEncoder_v0p0p1_0.x36.Y OUT2.t62 VDD.t849 sky130_fd_pr__pfet_01v8_hvt ad=0.135 pd=1.27 as=0.135 ps=1.27 w=1 l=0.15
X44 VV16.t11 VV15.t10 GND.t34 sky130_fd_pr__res_xhigh_po_5p73 l=2.52
X45 OUT1.t127 16to4_PriorityEncoder_v0p0p1_0.x29.Y GND.t1092 GND.t1091 sky130_fd_pr__nfet_01v8 ad=0.0878 pd=0.92 as=0.0878 ps=0.92 w=0.65 l=0.15
X46 GND.t606 frontAnalog_v0p0p1_12.x65.X frontAnalog_v0p0p1_12.RSfetsym_0.x2.Y GND.t605 sky130_fd_pr__nfet_01v8 ad=0.0878 pd=0.92 as=0.0878 ps=0.92 w=0.65 l=0.15
X47 OUT2.t61 16to4_PriorityEncoder_v0p0p1_0.x36.Y VDD.t848 VDD.t847 sky130_fd_pr__pfet_01v8_hvt ad=0.135 pd=1.27 as=0.135 ps=1.27 w=1 l=0.15
X48 GND.t1502 16to4_PriorityEncoder_v0p0p1_0.x29.A 16to4_PriorityEncoder_v0p0p1_0.x29.Y GND.t1501 sky130_fd_pr__nfet_01v8 ad=0.0878 pd=0.92 as=0.0878 ps=0.92 w=0.65 l=0.15
X49 frontAnalog_v0p0p1_7.RSfetsym_0.x1.Y frontAnalog_v0p0p1_7.x63.X VDD.t873 VDD.t866 sky130_fd_pr__pfet_01v8_hvt ad=0.135 pd=1.27 as=0.26 ps=2.52 w=1 l=0.15
X50 OUT0.t126 16to4_PriorityEncoder_v0p0p1_0.x25.A GND.t799 GND.t798 sky130_fd_pr__nfet_01v8 ad=0.0878 pd=0.92 as=0.0878 ps=0.92 w=0.65 l=0.15
X51 a_77637_n50057# 16to4_PriorityEncoder_v0p0p1_0.x7.Y VDD.t1063 VDD.t163 sky130_fd_pr__pfet_01v8_hvt ad=0.0567 pd=0.69 as=0.118 ps=1.4 w=0.42 l=0.15
X52 frontAnalog_v0p0p1_2.x65.A.t1 frontAnalog_v0p0p1_2.x63.A.t4 a_55268_n3936# GND.t578 sky130_fd_pr__nfet_01v8_lvt ad=0.29 pd=2.58 as=0.29 ps=2.58 w=1 l=0.15
X53 VDD.t198 frontAnalog_v0p0p1_15.x65.X frontAnalog_v0p0p1_15.RSfetsym_0.QN.t3 VDD.t194 sky130_fd_pr__pfet_01v8 ad=0.58 pd=4.58 as=0.29 ps=2.29 w=2 l=0.25
X54 GND.t1335 16to4_PriorityEncoder_v0p0p1_0.x43.Y OUT3.t124 GND.t1334 sky130_fd_pr__nfet_01v8 ad=0.0878 pd=0.92 as=0.0878 ps=0.92 w=0.65 l=0.15
X55 GND.t797 16to4_PriorityEncoder_v0p0p1_0.x25.A OUT0.t125 GND.t796 sky130_fd_pr__nfet_01v8 ad=0.0878 pd=0.92 as=0.0878 ps=0.92 w=0.65 l=0.15
X56 a_82906_n51645# 16to4_PriorityEncoder_v0p0p1_0.x3.A0 GND.t1393 GND.t1392 sky130_fd_pr__nfet_01v8 ad=0.0567 pd=0.69 as=0.109 ps=1.36 w=0.42 l=0.15
X57 OUT3.t60 16to4_PriorityEncoder_v0p0p1_0.x43.Y VDD.t1256 VDD.t1255 sky130_fd_pr__pfet_01v8_hvt ad=0.135 pd=1.27 as=0.26 ps=2.52 w=1 l=0.15
X58 frontAnalog_v0p0p1_6.RSfetsym_0.QN.t0 I10.t5 VDD.t124 VDD.t123 sky130_fd_pr__pfet_01v8 ad=0.58 pd=4.58 as=0.58 ps=4.58 w=2 l=0.3
X59 a_77881_n44527# 16to4_PriorityEncoder_v0p0p1_0.x5.x18.C a_77775_n44527# GND.t176 sky130_fd_pr__nfet_01v8 ad=0.0693 pd=0.75 as=0.0798 ps=0.8 w=0.42 l=0.15
X60 GND.t407 I13.t5 a_59578_n13770# GND.t406 sky130_fd_pr__nfet_01v8 ad=0.29 pd=2.58 as=0.29 ps=2.58 w=1 l=0.15
X61 OUT3.t123 16to4_PriorityEncoder_v0p0p1_0.x43.Y GND.t1333 GND.t1332 sky130_fd_pr__nfet_01v8 ad=0.0878 pd=0.92 as=0.0878 ps=0.92 w=0.65 l=0.15
X62 16to4_PriorityEncoder_v0p0p1_0.x36.Y 16to4_PriorityEncoder_v0p0p1_0.x36.A GND.t515 GND.t514 sky130_fd_pr__nfet_01v8 ad=0.0878 pd=0.92 as=0.0878 ps=0.92 w=0.65 l=0.15
X63 a_53630_n9396# PTAT_v0p0p0_mag_0.VOUT.t3 GND.t346 GND.t337 sky130_fd_pr__nfet_01v8_lvt ad=1.16 pd=8.58 as=1.16 ps=8.58 w=4 l=0.6
X64 VDD.t1254 16to4_PriorityEncoder_v0p0p1_0.x43.Y OUT3.t59 VDD.t1253 sky130_fd_pr__pfet_01v8_hvt ad=0.135 pd=1.27 as=0.135 ps=1.27 w=1 l=0.15
X65 VDD.t499 frontAnalog_v0p0p1_2.x63.A.t5 a_57123_n4079# VDD.t498 sky130_fd_pr__pfet_01v8_hvt ad=0.115 pd=1.08 as=0.205 ps=2.1 w=0.79 l=0.15
X66 frontAnalog_v0p0p1_11.x63.X a_57123_n63479# VDD.t160 VDD.t159 sky130_fd_pr__pfet_01v8_hvt ad=0.205 pd=2.1 as=0.115 ps=1.08 w=0.79 l=0.15
X67 a_77723_n41087# VDD.t1502 a_77637_n41087# GND.t0 sky130_fd_pr__nfet_01v8 ad=0.0567 pd=0.69 as=0.118 ps=1.4 w=0.42 l=0.15
X68 VV14.t8 VV13.t10 GND.t73 sky130_fd_pr__res_xhigh_po_5p73 l=2.52
X69 GND.t1126 frontAnalog_v0p0p1_6.x65.X frontAnalog_v0p0p1_6.RSfetsym_0.x2.Y GND.t1125 sky130_fd_pr__nfet_01v8 ad=0.0878 pd=0.92 as=0.0878 ps=0.92 w=0.65 l=0.15
X70 GND.t1389 16to4_PriorityEncoder_v0p0p1_0.x21.A 16to4_PriorityEncoder_v0p0p1_0.x22.A GND.t1388 sky130_fd_pr__nfet_01v8 ad=0.0878 pd=0.92 as=0.0878 ps=0.92 w=0.65 l=0.15
X71 w_55000_n79150# VIN.t0 a_53630_n79596# GND.t413 sky130_fd_pr__nfet_01v8_lvt ad=1.16 pd=8.58 as=1.16 ps=8.58 w=4 l=0.6
X72 GND.t98 frontAnalog_v0p0p1_15.x63.X frontAnalog_v0p0p1_15.RSfetsym_0.x1.Y GND.t93 sky130_fd_pr__nfet_01v8 ad=0.0878 pd=0.92 as=0.0878 ps=0.92 w=0.65 l=0.15
X73 VIN.t1 w_55000_n51528# error sky130_fd_pr__cap_var_lvt w=2 l=0.18
X74 GND.t1090 16to4_PriorityEncoder_v0p0p1_0.x29.Y OUT1.t126 GND.t1089 sky130_fd_pr__nfet_01v8 ad=0.0878 pd=0.92 as=0.0878 ps=0.92 w=0.65 l=0.15
X75 16to4_PriorityEncoder_v0p0p1_0.x5.x22.C a_77605_n44779# VDD.t241 VDD.t240 sky130_fd_pr__pfet_01v8_hvt ad=0.26 pd=2.52 as=0.312 ps=1.68 w=1 l=0.15
X76 OUT2.t60 16to4_PriorityEncoder_v0p0p1_0.x36.Y VDD.t846 VDD.t845 sky130_fd_pr__pfet_01v8_hvt ad=0.135 pd=1.27 as=0.135 ps=1.27 w=1 l=0.15
X77 VV4.t7 VV3.t5 GND.t17 sky130_fd_pr__res_xhigh_po_5p73 l=2.52
X78 16to4_PriorityEncoder_v0p0p1_0.x43.Y 16to4_PriorityEncoder_v0p0p1_0.x43.A VDD.t1483 VDD.t1482 sky130_fd_pr__pfet_01v8_hvt ad=0.135 pd=1.27 as=0.135 ps=1.27 w=1 l=0.15
X79 VDD.t502 frontAnalog_v0p0p1_4.x65.A.t4 a_57123_n18759# VDD.t501 sky130_fd_pr__pfet_01v8_hvt ad=0.115 pd=1.08 as=0.205 ps=2.1 w=0.79 l=0.15
X80 VV10.t15 VV9.t15 GND.t68 sky130_fd_pr__res_xhigh_po_5p73 l=2.52
X81 OUT0.t62 16to4_PriorityEncoder_v0p0p1_0.x25.A VDD.t708 VDD.t707 sky130_fd_pr__pfet_01v8_hvt ad=0.135 pd=1.27 as=0.135 ps=1.27 w=1 l=0.15
X82 a_78065_n41309# 16to4_PriorityEncoder_v0p0p1_0.x5.x22.A GND.t521 GND.t520 sky130_fd_pr__nfet_01v8 ad=0.0693 pd=0.75 as=0.109 ps=1.36 w=0.42 l=0.15
X83 OUT0.t124 16to4_PriorityEncoder_v0p0p1_0.x25.A GND.t795 GND.t794 sky130_fd_pr__nfet_01v8 ad=0.0878 pd=0.92 as=0.0878 ps=0.92 w=0.65 l=0.15
X84 GND.t793 16to4_PriorityEncoder_v0p0p1_0.x25.A OUT0.t123 GND.t792 sky130_fd_pr__nfet_01v8 ad=0.0878 pd=0.92 as=0.0878 ps=0.92 w=0.65 l=0.15
X85 VV3.t15 VV2.t15 GND.t69 sky130_fd_pr__res_xhigh_po_5p73 l=2.52
X86 VDD.t1062 16to4_PriorityEncoder_v0p0p1_0.x7.Y a_77605_n51335# VDD.t1061 sky130_fd_pr__pfet_01v8_hvt ad=0.312 pd=1.68 as=0.0588 ps=0.7 w=0.42 l=0.15
X87 VV13.t6 VV12.t11 GND.t68 sky130_fd_pr__res_xhigh_po_5p73 l=2.52
X88 VDD.t706 16to4_PriorityEncoder_v0p0p1_0.x25.A OUT0.t61 VDD.t705 sky130_fd_pr__pfet_01v8_hvt ad=0.135 pd=1.27 as=0.135 ps=1.27 w=1 l=0.15
X89 OUT3.t122 16to4_PriorityEncoder_v0p0p1_0.x43.Y GND.t1331 GND.t1330 sky130_fd_pr__nfet_01v8 ad=0.0878 pd=0.92 as=0.0878 ps=0.92 w=0.65 l=0.15
X90 frontAnalog_v0p0p1_9.x65.A.t1 CLK.t2 frontAnalog_v0p0p1_9.x63.A.t3 VDD.t200 sky130_fd_pr__pfet_01v8_lvt ad=1.16 pd=8.58 as=1.16 ps=8.58 w=4 l=0.35
X91 OUT2.t124 16to4_PriorityEncoder_v0p0p1_0.x36.Y GND.t937 GND.t936 sky130_fd_pr__nfet_01v8 ad=0.0878 pd=0.92 as=0.0878 ps=0.92 w=0.65 l=0.15
X92 frontAnalog_v0p0p1_12.RSfetsym_0.x2.Y frontAnalog_v0p0p1_12.x65.X VDD.t520 VDD.t515 sky130_fd_pr__pfet_01v8_hvt ad=0.135 pd=1.27 as=0.135 ps=1.27 w=1 l=0.15
X93 VDD.t1252 16to4_PriorityEncoder_v0p0p1_0.x43.Y OUT3.t58 VDD.t1251 sky130_fd_pr__pfet_01v8_hvt ad=0.26 pd=2.52 as=0.135 ps=1.27 w=1 l=0.15
X94 frontAnalog_v0p0p1_4.x63.X a_57123_n20279# VDD.t212 VDD.t211 sky130_fd_pr__pfet_01v8_hvt ad=0.205 pd=2.1 as=0.115 ps=1.08 w=0.79 l=0.15
X95 GND.t1088 16to4_PriorityEncoder_v0p0p1_0.x29.Y OUT1.t125 GND.t1087 sky130_fd_pr__nfet_01v8 ad=0.0878 pd=0.92 as=0.0878 ps=0.92 w=0.65 l=0.15
X96 w_55000_n35950# VIN.t2 a_53630_n36396# GND.t370 sky130_fd_pr__nfet_01v8_lvt ad=1.16 pd=8.58 as=1.16 ps=8.58 w=4 l=0.6
X97 GND.t532 frontAnalog_v0p0p1_1.x63.X frontAnalog_v0p0p1_1.RSfetsym_0.x1.Y GND.t527 sky130_fd_pr__nfet_01v8 ad=0.0878 pd=0.92 as=0.0878 ps=0.92 w=0.65 l=0.15
X98 frontAnalog_v0p0p1_10.RSfetsym_0.x2.Y frontAnalog_v0p0p1_10.x65.X GND.t673 GND.t672 sky130_fd_pr__nfet_01v8 ad=0.0878 pd=0.92 as=0.169 ps=1.82 w=0.65 l=0.15
X99 GND.t1329 16to4_PriorityEncoder_v0p0p1_0.x43.Y OUT3.t121 GND.t1328 sky130_fd_pr__nfet_01v8 ad=0.0878 pd=0.92 as=0.0878 ps=0.92 w=0.65 l=0.15
X100 VDD.t878 I5.t6 a_77637_n49127# VDD.t877 sky130_fd_pr__pfet_01v8_hvt ad=0.167 pd=1.39 as=0.0567 ps=0.69 w=0.42 l=0.15
X101 GND.t513 16to4_PriorityEncoder_v0p0p1_0.x36.A 16to4_PriorityEncoder_v0p0p1_0.x36.Y GND.t512 sky130_fd_pr__nfet_01v8 ad=0.169 pd=1.82 as=0.0878 ps=0.92 w=0.65 l=0.15
X102 VDD.t1311 16to4_PriorityEncoder_v0p0p1_0.x21.A 16to4_PriorityEncoder_v0p0p1_0.x22.A VDD.t1310 sky130_fd_pr__pfet_01v8_hvt ad=0.135 pd=1.27 as=0.135 ps=1.27 w=1 l=0.15
X103 frontAnalog_v0p0p1_2.RSfetsym_0.x1.Y frontAnalog_v0p0p1_2.x63.X GND.t1523 GND.t1518 sky130_fd_pr__nfet_01v8 ad=0.0878 pd=0.92 as=0.169 ps=1.82 w=0.65 l=0.15
X104 VDD.t432 16to4_PriorityEncoder_v0p0p1_0.x36.A 16to4_PriorityEncoder_v0p0p1_0.x36.Y VDD.t431 sky130_fd_pr__pfet_01v8_hvt ad=0.135 pd=1.27 as=0.135 ps=1.27 w=1 l=0.15
X105 a_16541_n13117.t0 GND.t23 GND.t22 sky130_fd_pr__res_xhigh_po_5p73 l=85.8
X106 I1.t0 frontAnalog_v0p0p1_14.RSfetsym_0.x2.Y GND.t78 GND.t77 sky130_fd_pr__nfet_01v8 ad=0.58 pd=4.58 as=0.58 ps=4.58 w=2 l=0.25
X107 GND.t1363 frontAnalog_v0p0p1_9.x65.A.t4 a_57123_n51159# GND.t576 sky130_fd_pr__nfet_01v8 ad=0.0754 pd=0.81 as=0.135 ps=1.56 w=0.52 l=0.15
X108 VV3.t7 VV2.t6 GND.t104 sky130_fd_pr__res_xhigh_po_5p73 l=2.52
X109 VDD.t327 I13.t6 a_77605_n45765# VDD.t60 sky130_fd_pr__pfet_01v8_hvt ad=0.0567 pd=0.69 as=0.109 ps=1.36 w=0.42 l=0.15
X110 a_77881_n52567# 16to4_PriorityEncoder_v0p0p1_0.x3.x18.C a_77775_n52567# GND.t75 sky130_fd_pr__nfet_01v8 ad=0.0693 pd=0.75 as=0.0798 ps=0.8 w=0.42 l=0.15
X111 16to4_PriorityEncoder_v0p0p1_0.x25.A 16to4_PriorityEncoder_v0p0p1_0.x22.A GND.t1177 GND.t1176 sky130_fd_pr__nfet_01v8 ad=0.0878 pd=0.92 as=0.0878 ps=0.92 w=0.65 l=0.15
X112 frontAnalog_v0p0p1_9.x63.A.t0 frontAnalog_v0p0p1_9.x65.A.t5 a_55268_n52536# GND.t1364 sky130_fd_pr__nfet_01v8_lvt ad=0.29 pd=2.58 as=0.29 ps=2.58 w=1 l=0.15
X113 OUT2.t59 16to4_PriorityEncoder_v0p0p1_0.x36.Y VDD.t844 VDD.t843 sky130_fd_pr__pfet_01v8_hvt ad=0.135 pd=1.27 as=0.26 ps=2.52 w=1 l=0.15
X114 OUT0.t60 16to4_PriorityEncoder_v0p0p1_0.x25.A VDD.t704 VDD.t703 sky130_fd_pr__pfet_01v8_hvt ad=0.135 pd=1.27 as=0.135 ps=1.27 w=1 l=0.15
X115 VDD.t702 16to4_PriorityEncoder_v0p0p1_0.x25.A OUT0.t59 VDD.t701 sky130_fd_pr__pfet_01v8_hvt ad=0.135 pd=1.27 as=0.135 ps=1.27 w=1 l=0.15
X116 I6.t0 frontAnalog_v0p0p1_9.RSfetsym_0.QN.t5 VDD.t377 VDD.t161 sky130_fd_pr__pfet_01v8 ad=0.58 pd=4.58 as=0.58 ps=4.58 w=2 l=0.3
X117 frontAnalog_v0p0p1_6.RSfetsym_0.x2.Y frontAnalog_v0p0p1_6.x65.X VDD.t1045 VDD.t1040 sky130_fd_pr__pfet_01v8_hvt ad=0.135 pd=1.27 as=0.135 ps=1.27 w=1 l=0.15
X118 GND.t1557 16to4_PriorityEncoder_v0p0p1_0.x43.A 16to4_PriorityEncoder_v0p0p1_0.x43.Y GND.t1556 sky130_fd_pr__nfet_01v8 ad=0.0878 pd=0.92 as=0.0878 ps=0.92 w=0.65 l=0.15
X119 GND.t1086 16to4_PriorityEncoder_v0p0p1_0.x29.Y OUT1.t124 GND.t1085 sky130_fd_pr__nfet_01v8 ad=0.0878 pd=0.92 as=0.0878 ps=0.92 w=0.65 l=0.15
X120 OUT2.t58 16to4_PriorityEncoder_v0p0p1_0.x36.Y VDD.t842 VDD.t841 sky130_fd_pr__pfet_01v8_hvt ad=0.135 pd=1.27 as=0.135 ps=1.27 w=1 l=0.15
X121 frontAnalog_v0p0p1_3.RSfetsym_0.x2.Y frontAnalog_v0p0p1_3.x65.X GND.t627 GND.t626 sky130_fd_pr__nfet_01v8 ad=0.0878 pd=0.92 as=0.169 ps=1.82 w=0.65 l=0.15
X122 a_77639_n42341# VDD.t65 VDD.t67 VDD.t66 sky130_fd_pr__pfet_01v8_hvt ad=0.0567 pd=0.69 as=0.118 ps=1.4 w=0.42 l=0.15
X123 frontAnalog_v0p0p1_13.RSfetsym_0.x1.Y frontAnalog_v0p0p1_13.x63.X GND.t654 GND.t650 sky130_fd_pr__nfet_01v8 ad=0.0878 pd=0.92 as=0.169 ps=1.82 w=0.65 l=0.15
X124 a_59577_n57483# frontAnalog_v0p0p1_10.x63.X I5.t4 GND.t1413 sky130_fd_pr__nfet_01v8 ad=0.29 pd=2.58 as=0.29 ps=2.58 w=1 l=0.15
X125 a_59578_n67770# frontAnalog_v0p0p1_13.x65.X frontAnalog_v0p0p1_13.RSfetsym_0.QN.t2 GND.t120 sky130_fd_pr__nfet_01v8 ad=0.29 pd=2.58 as=0.315 ps=2.72 w=1 l=0.15
X126 a_77687_n45765# I13.t7 a_77605_n45765# GND.t408 sky130_fd_pr__nfet_01v8 ad=0.0441 pd=0.63 as=0.109 ps=1.36 w=0.42 l=0.15
X127 16to4_PriorityEncoder_v0p0p1_0.x42.A 16to4_PriorityEncoder_v0p0p1_0.x41.A VDD.t379 VDD.t378 sky130_fd_pr__pfet_01v8_hvt ad=0.26 pd=2.52 as=0.26 ps=2.52 w=1 l=0.15
X128 16to4_PriorityEncoder_v0p0p1_0.x3.x22.C a_77605_n52819# VDD.t531 VDD.t530 sky130_fd_pr__pfet_01v8_hvt ad=0.26 pd=2.52 as=0.312 ps=1.68 w=1 l=0.15
X129 VV2.t8 VV1.t10 GND.t50 sky130_fd_pr__res_xhigh_po_5p73 l=2.52
X130 VDD.t840 16to4_PriorityEncoder_v0p0p1_0.x36.Y OUT2.t57 VDD.t839 sky130_fd_pr__pfet_01v8_hvt ad=0.135 pd=1.27 as=0.135 ps=1.27 w=1 l=0.15
X131 OUT1.t123 16to4_PriorityEncoder_v0p0p1_0.x29.Y GND.t1084 GND.t1083 sky130_fd_pr__nfet_01v8 ad=0.0878 pd=0.92 as=0.0878 ps=0.92 w=0.65 l=0.15
X132 frontAnalog_v0p0p1_7.x63.A.t0 frontAnalog_v0p0p1_7.x65.A.t4 VDD.t1341 VDD.t477 sky130_fd_pr__pfet_01v8_lvt ad=1.16 pd=8.58 as=1.16 ps=8.58 w=4 l=0.35
X133 I9.t4 frontAnalog_v0p0p1_7.RSfetsym_0.x2.Y GND.t1145 GND.t450 sky130_fd_pr__nfet_01v8 ad=0.58 pd=4.58 as=0.58 ps=4.58 w=2 l=0.25
X134 VV7.t16 w_55000_n52150# error sky130_fd_pr__cap_var_lvt w=2 l=0.18
X135 a_16719_n13117.t22 a_16599_n13205.t5 a_16541_n13117.t10 GND.t130 sky130_fd_pr__nfet_01v8_lvt ad=1.16 pd=8.58 as=1.16 ps=8.58 w=4 l=0.6
X136 16to4_PriorityEncoder_v0p0p1_0.x5.x14.B a_77637_n41087# GND.t1193 GND.t173 sky130_fd_pr__nfet_01v8 ad=0.182 pd=1.86 as=0.112 ps=1.04 w=0.65 l=0.15
X137 OUT0.t122 16to4_PriorityEncoder_v0p0p1_0.x25.A GND.t791 GND.t790 sky130_fd_pr__nfet_01v8 ad=0.0878 pd=0.92 as=0.0878 ps=0.92 w=0.65 l=0.15
X138 GND.t648 16to4_PriorityEncoder_v0p0p1_0.x3.x14.A a_78065_n49349# GND.t647 sky130_fd_pr__nfet_01v8 ad=0.102 pd=0.99 as=0.0567 ps=0.69 w=0.42 l=0.15
X139 a_78703_n45515# 16to4_PriorityEncoder_v0p0p1_0.x5.x22.C a_78607_n45515# VDD.t354 sky130_fd_pr__pfet_01v8_hvt ad=0.0441 pd=0.63 as=0.0693 ps=0.75 w=0.42 l=0.15
X140 frontAnalog_v0p0p1_2.x65.X a_57123_n2559# GND.t1432 GND.t256 sky130_fd_pr__nfet_01v8 ad=0.135 pd=1.56 as=0.0754 ps=0.81 w=0.52 l=0.15
X141 16to4_PriorityEncoder_v0p0p1_0.x25.A 16to4_PriorityEncoder_v0p0p1_0.x22.A VDD.t1103 VDD.t1102 sky130_fd_pr__pfet_01v8_hvt ad=0.135 pd=1.27 as=0.135 ps=1.27 w=1 l=0.15
X142 a_16719_n13117.t3 a_16719_n13117.t2 a_16599_n13205.t3 GND.t1209 sky130_fd_pr__nfet_01v8_lvt ad=0.122 pd=1.42 as=0.122 ps=1.42 w=0.42 l=0.15
X143 VV6.t9 VV5.t8 GND.t72 sky130_fd_pr__res_xhigh_po_5p73 l=2.52
X144 VDD.t174 frontAnalog_v0p0p1_8.x65.X frontAnalog_v0p0p1_8.RSfetsym_0.x2.Y VDD.t167 sky130_fd_pr__pfet_01v8_hvt ad=0.135 pd=1.27 as=0.135 ps=1.27 w=1 l=0.15
X145 GND.t1327 16to4_PriorityEncoder_v0p0p1_0.x43.Y OUT3.t120 GND.t1326 sky130_fd_pr__nfet_01v8 ad=0.0878 pd=0.92 as=0.0878 ps=0.92 w=0.65 l=0.15
X146 GND.t1175 16to4_PriorityEncoder_v0p0p1_0.x22.A 16to4_PriorityEncoder_v0p0p1_0.x25.A GND.t1174 sky130_fd_pr__nfet_01v8 ad=0.0878 pd=0.92 as=0.0878 ps=0.92 w=0.65 l=0.15
X147 VDD.t838 16to4_PriorityEncoder_v0p0p1_0.x36.Y OUT2.t56 VDD.t837 sky130_fd_pr__pfet_01v8_hvt ad=0.135 pd=1.27 as=0.135 ps=1.27 w=1 l=0.15
X148 VDD.t1264 frontAnalog_v0p0p1_13.x63.A.t4 a_57123_n68879# VDD.t1263 sky130_fd_pr__pfet_01v8_hvt ad=0.115 pd=1.08 as=0.205 ps=2.1 w=0.79 l=0.15
X149 a_59577_n14283# frontAnalog_v0p0p1_3.x63.X I13.t4 GND.t1438 sky130_fd_pr__nfet_01v8 ad=0.29 pd=2.58 as=0.29 ps=2.58 w=1 l=0.15
X150 a_59578_n24570# frontAnalog_v0p0p1_5.x65.X frontAnalog_v0p0p1_5.RSfetsym_0.QN.t4 GND.t1472 sky130_fd_pr__nfet_01v8 ad=0.29 pd=2.58 as=0.315 ps=2.72 w=1 l=0.15
X151 16to4_PriorityEncoder_v0p0p1_0.x29.Y 16to4_PriorityEncoder_v0p0p1_0.x29.A GND.t1500 GND.t1499 sky130_fd_pr__nfet_01v8 ad=0.0878 pd=0.92 as=0.0878 ps=0.92 w=0.65 l=0.15
X152 VV7.t3 VV6.t2 GND.t51 sky130_fd_pr__res_xhigh_po_5p73 l=2.52
X153 I6.t3 frontAnalog_v0p0p1_9.x63.X VDD.t492 VDD.t489 sky130_fd_pr__pfet_01v8 ad=0.29 pd=2.29 as=0.58 ps=4.58 w=2 l=0.25
X154 a_53630_n63396# PTAT_v0p0p0_mag_0.VOUT.t4 GND.t347 GND.t237 sky130_fd_pr__nfet_01v8_lvt ad=1.16 pd=8.58 as=1.16 ps=8.58 w=4 l=0.6
X155 16to4_PriorityEncoder_v0p0p1_0.x5.x22.A a_77639_n42341# VDD.t120 VDD.t119 sky130_fd_pr__pfet_01v8_hvt ad=0.475 pd=2.95 as=0.167 ps=1.39 w=1 l=0.15
X156 frontAnalog_v0p0p1_0.RSfetsym_0.x1.Y frontAnalog_v0p0p1_0.x63.X GND.t172 GND.t168 sky130_fd_pr__nfet_01v8 ad=0.0878 pd=0.92 as=0.0878 ps=0.92 w=0.65 l=0.15
X157 16to4_PriorityEncoder_v0p0p1_0.x43.Y 16to4_PriorityEncoder_v0p0p1_0.x43.A GND.t1555 GND.t1554 sky130_fd_pr__nfet_01v8 ad=0.0878 pd=0.92 as=0.0878 ps=0.92 w=0.65 l=0.15
X158 VDD.t1315 frontAnalog_v0p0p1_10.x63.A.t4 frontAnalog_v0p0p1_10.x65.A.t0 VDD.t453 sky130_fd_pr__pfet_01v8_lvt ad=1.16 pd=8.58 as=1.16 ps=8.58 w=4 l=0.35
X159 OUT2.t123 16to4_PriorityEncoder_v0p0p1_0.x36.Y GND.t935 GND.t934 sky130_fd_pr__nfet_01v8 ad=0.0878 pd=0.92 as=0.169 ps=1.82 w=0.65 l=0.15
X160 frontAnalog_v0p0p1_0.RSfetsym_0.x2.Y frontAnalog_v0p0p1_0.x65.X GND.t273 GND.t272 sky130_fd_pr__nfet_01v8 ad=0.0878 pd=0.92 as=0.169 ps=1.82 w=0.65 l=0.15
X161 OUT1.t62 16to4_PriorityEncoder_v0p0p1_0.x29.Y VDD.t1010 VDD.t1009 sky130_fd_pr__pfet_01v8_hvt ad=0.135 pd=1.27 as=0.135 ps=1.27 w=1 l=0.15
X162 w_55000_n8950# VIN.t3 a_53630_n9396# GND.t65 sky130_fd_pr__nfet_01v8_lvt ad=1.16 pd=8.58 as=1.16 ps=8.58 w=4 l=0.6
X163 VDD.t880 I5.t7 a_77605_n53805# VDD.t879 sky130_fd_pr__pfet_01v8_hvt ad=0.0567 pd=0.69 as=0.109 ps=1.36 w=0.42 l=0.15
X164 frontAnalog_v0p0p1_12.x65.X a_57123_n72759# GND.t286 GND.t285 sky130_fd_pr__nfet_01v8 ad=0.135 pd=1.56 as=0.0754 ps=0.81 w=0.52 l=0.15
X165 VDD.t1008 16to4_PriorityEncoder_v0p0p1_0.x29.Y OUT1.t61 VDD.t1007 sky130_fd_pr__pfet_01v8_hvt ad=0.135 pd=1.27 as=0.135 ps=1.27 w=1 l=0.15
X166 OUT0.t58 16to4_PriorityEncoder_v0p0p1_0.x25.A VDD.t700 VDD.t699 sky130_fd_pr__pfet_01v8_hvt ad=0.135 pd=1.27 as=0.135 ps=1.27 w=1 l=0.15
X167 frontAnalog_v0p0p1_4.RSfetsym_0.x2.Y frontAnalog_v0p0p1_4.x65.X GND.t1192 GND.t1191 sky130_fd_pr__nfet_01v8 ad=0.0878 pd=0.92 as=0.0878 ps=0.92 w=0.65 l=0.15
X168 GND.t1325 16to4_PriorityEncoder_v0p0p1_0.x43.Y OUT3.t119 GND.t1324 sky130_fd_pr__nfet_01v8 ad=0.0878 pd=0.92 as=0.0878 ps=0.92 w=0.65 l=0.15
X169 VDD.t1133 frontAnalog_v0p0p1_5.x63.A.t4 a_57123_n25679# VDD.t1132 sky130_fd_pr__pfet_01v8_hvt ad=0.115 pd=1.08 as=0.205 ps=2.1 w=0.79 l=0.15
X170 GND.t789 16to4_PriorityEncoder_v0p0p1_0.x25.A OUT0.t121 GND.t788 sky130_fd_pr__nfet_01v8 ad=0.0878 pd=0.92 as=0.0878 ps=0.92 w=0.65 l=0.15
X171 a_53630_n20196# PTAT_v0p0p0_mag_0.VOUT.t5 GND.t348 GND.t237 sky130_fd_pr__nfet_01v8_lvt ad=1.16 pd=8.58 as=1.16 ps=8.58 w=4 l=0.6
X172 a_77639_n50381# 16to4_PriorityEncoder_v0p0p1_0.x7.Y VDD.t1060 VDD.t1059 sky130_fd_pr__pfet_01v8_hvt ad=0.0567 pd=0.69 as=0.118 ps=1.4 w=0.42 l=0.15
X173 VDD.t430 16to4_PriorityEncoder_v0p0p1_0.x36.A 16to4_PriorityEncoder_v0p0p1_0.x36.Y VDD.t429 sky130_fd_pr__pfet_01v8_hvt ad=0.135 pd=1.27 as=0.135 ps=1.27 w=1 l=0.15
X174 VDD.t1101 16to4_PriorityEncoder_v0p0p1_0.x22.A 16to4_PriorityEncoder_v0p0p1_0.x25.A VDD.t1100 sky130_fd_pr__pfet_01v8_hvt ad=0.135 pd=1.27 as=0.135 ps=1.27 w=1 l=0.15
X175 VDD.t237 frontAnalog_v0p0p1_3.x63.A.t4 frontAnalog_v0p0p1_3.x65.A.t2 VDD.t236 sky130_fd_pr__pfet_01v8_lvt ad=1.16 pd=8.58 as=1.16 ps=8.58 w=4 l=0.35
X176 OUT3.t118 16to4_PriorityEncoder_v0p0p1_0.x43.Y GND.t1323 GND.t1322 sky130_fd_pr__nfet_01v8 ad=0.0878 pd=0.92 as=0.0878 ps=0.92 w=0.65 l=0.15
X177 VDD.t854 frontAnalog_v0p0p1_15.x65.A.t4 a_57123_n83559# VDD.t853 sky130_fd_pr__pfet_01v8_hvt ad=0.115 pd=1.08 as=0.205 ps=2.1 w=0.79 l=0.15
X178 GND.t428 frontAnalog_v0p0p1_14.x63.A.t5 a_57123_n79679# GND.t427 sky130_fd_pr__nfet_01v8 ad=0.0754 pd=0.81 as=0.135 ps=1.56 w=0.52 l=0.15
X179 a_55268_n47136# CLK.t3 GND.t236 GND.t235 sky130_fd_pr__nfet_01v8_lvt ad=0.29 pd=2.58 as=0.29 ps=2.58 w=1 l=0.15
X180 frontAnalog_v0p0p1_1.RSfetsym_0.x2.Y frontAnalog_v0p0p1_1.x65.X GND.t1448 GND.t1447 sky130_fd_pr__nfet_01v8 ad=0.0878 pd=0.92 as=0.0878 ps=0.92 w=0.65 l=0.15
X181 VDD.t519 frontAnalog_v0p0p1_12.x65.X frontAnalog_v0p0p1_12.RSfetsym_0.x2.Y VDD.t515 sky130_fd_pr__pfet_01v8_hvt ad=0.26 pd=2.52 as=0.135 ps=1.27 w=1 l=0.15
X182 GND.t253 16to4_PriorityEncoder_v0p0p1_0.x3.x17.C a_78349_n51085# GND.t252 sky130_fd_pr__nfet_01v8 ad=0.0567 pd=0.69 as=0.0693 ps=0.75 w=0.42 l=0.15
X183 frontAnalog_v0p0p1_4.x65.A.t0 frontAnalog_v0p0p1_4.x63.A.t4 a_55268_n20136# GND.t53 sky130_fd_pr__nfet_01v8_lvt ad=0.29 pd=2.58 as=0.29 ps=2.58 w=1 l=0.15
X184 frontAnalog_v0p0p1_9.RSfetsym_0.QN.t0 I6.t5 VDD.t162 VDD.t161 sky130_fd_pr__pfet_01v8 ad=0.58 pd=4.58 as=0.58 ps=4.58 w=2 l=0.3
X185 OUT3.t57 16to4_PriorityEncoder_v0p0p1_0.x43.Y VDD.t1250 VDD.t1249 sky130_fd_pr__pfet_01v8_hvt ad=0.135 pd=1.27 as=0.135 ps=1.27 w=1 l=0.15
X186 VV10.t5 VV9.t5 GND.t50 sky130_fd_pr__res_xhigh_po_5p73 l=2.52
X187 a_78703_n53555# 16to4_PriorityEncoder_v0p0p1_0.x3.x22.C a_78607_n53555# VDD.t14 sky130_fd_pr__pfet_01v8_hvt ad=0.0441 pd=0.63 as=0.0693 ps=0.75 w=0.42 l=0.15
X188 GND.t787 16to4_PriorityEncoder_v0p0p1_0.x25.A OUT0.t120 GND.t786 sky130_fd_pr__nfet_01v8 ad=0.0878 pd=0.92 as=0.0878 ps=0.92 w=0.65 l=0.15
X189 OUT1.t122 16to4_PriorityEncoder_v0p0p1_0.x29.Y GND.t1082 GND.t1081 sky130_fd_pr__nfet_01v8 ad=0.0878 pd=0.92 as=0.0878 ps=0.92 w=0.65 l=0.15
X190 VV12.t8 VV11.t8 GND.t292 sky130_fd_pr__res_xhigh_po_5p73 l=2.52
X191 VV3.t8 VV2.t9 GND.t164 sky130_fd_pr__res_xhigh_po_5p73 l=2.52
X192 a_77775_n51335# 16to4_PriorityEncoder_v0p0p1_0.x3.x19.C a_77687_n51335# GND.t47 sky130_fd_pr__nfet_01v8 ad=0.0798 pd=0.8 as=0.0609 ps=0.71 w=0.42 l=0.15
X193 16to4_PriorityEncoder_v0p0p1_0.x43.A 16to4_PriorityEncoder_v0p0p1_0.x42.A VDD.t1025 VDD.t1024 sky130_fd_pr__pfet_01v8_hvt ad=0.135 pd=1.27 as=0.26 ps=2.52 w=1 l=0.15
X194 a_53630_n25596# VV12.t16 w_55000_n24528# GND.t151 sky130_fd_pr__nfet_01v8_lvt ad=1.16 pd=8.58 as=1.16 ps=8.58 w=4 l=0.6
X195 VV13.t8 VV12.t12 GND.t50 sky130_fd_pr__res_xhigh_po_5p73 l=2.52
X196 OUT3.t117 16to4_PriorityEncoder_v0p0p1_0.x43.Y GND.t1321 GND.t1320 sky130_fd_pr__nfet_01v8 ad=0.0878 pd=0.92 as=0.0878 ps=0.92 w=0.65 l=0.15
X197 16to4_PriorityEncoder_v0p0p1_0.x28.A 16to4_PriorityEncoder_v0p0p1_0.x27.A GND.t1370 GND.t1369 sky130_fd_pr__nfet_01v8 ad=0.169 pd=1.82 as=0.169 ps=1.82 w=0.65 l=0.15
X198 VDD.t698 16to4_PriorityEncoder_v0p0p1_0.x25.A OUT0.t57 VDD.t697 sky130_fd_pr__pfet_01v8_hvt ad=0.135 pd=1.27 as=0.135 ps=1.27 w=1 l=0.15
X199 VDD.t836 16to4_PriorityEncoder_v0p0p1_0.x36.Y OUT2.t55 VDD.t835 sky130_fd_pr__pfet_01v8_hvt ad=0.135 pd=1.27 as=0.135 ps=1.27 w=1 l=0.15
X200 frontAnalog_v0p0p1_9.RSfetsym_0.x2.Y frontAnalog_v0p0p1_9.x65.X VDD.t397 VDD.t392 sky130_fd_pr__pfet_01v8_hvt ad=0.135 pd=1.27 as=0.26 ps=2.52 w=1 l=0.15
X201 VDD.t1014 frontAnalog_v0p0p1_1.x65.A.t4 a_57123_n40359# VDD.t1013 sky130_fd_pr__pfet_01v8_hvt ad=0.115 pd=1.08 as=0.205 ps=2.1 w=0.79 l=0.15
X202 GND.t523 frontAnalog_v0p0p1_7.x63.A.t4 a_57123_n36479# GND.t522 sky130_fd_pr__nfet_01v8 ad=0.0754 pd=0.81 as=0.135 ps=1.56 w=0.52 l=0.15
X203 frontAnalog_v0p0p1_10.RSfetsym_0.QN.t1 frontAnalog_v0p0p1_10.x65.X VDD.t582 VDD.t578 sky130_fd_pr__pfet_01v8 ad=0.29 pd=2.29 as=0.58 ps=4.58 w=2 l=0.25
X204 frontAnalog_v0p0p1_9.RSfetsym_0.x1.Y frontAnalog_v0p0p1_9.x63.X GND.t574 GND.t569 sky130_fd_pr__nfet_01v8 ad=0.0878 pd=0.92 as=0.0878 ps=0.92 w=0.65 l=0.15
X205 VDD.t1044 frontAnalog_v0p0p1_6.x65.X frontAnalog_v0p0p1_6.RSfetsym_0.x2.Y VDD.t1040 sky130_fd_pr__pfet_01v8_hvt ad=0.26 pd=2.52 as=0.135 ps=1.27 w=1 l=0.15
X206 16to4_PriorityEncoder_v0p0p1_0.x36.Y 16to4_PriorityEncoder_v0p0p1_0.x36.A VDD.t428 VDD.t427 sky130_fd_pr__pfet_01v8_hvt ad=0.135 pd=1.27 as=0.135 ps=1.27 w=1 l=0.15
X207 VDD.t1278 I4.t5 a_77637_n48817# VDD.t1277 sky130_fd_pr__pfet_01v8_hvt ad=0.167 pd=1.39 as=0.0567 ps=0.69 w=0.42 l=0.15
X208 VDD.t1006 16to4_PriorityEncoder_v0p0p1_0.x29.Y OUT1.t60 VDD.t1005 sky130_fd_pr__pfet_01v8_hvt ad=0.26 pd=2.52 as=0.135 ps=1.27 w=1 l=0.15
X209 VDD.t118 frontAnalog_v0p0p1_13.x65.X frontAnalog_v0p0p1_13.RSfetsym_0.QN.t1 VDD.t114 sky130_fd_pr__pfet_01v8 ad=0.58 pd=4.58 as=0.29 ps=2.29 w=2 l=0.25
X210 GND.t785 16to4_PriorityEncoder_v0p0p1_0.x25.A OUT0.t119 GND.t784 sky130_fd_pr__nfet_01v8 ad=0.0878 pd=0.92 as=0.0878 ps=0.92 w=0.65 l=0.15
X211 VDD.t696 16to4_PriorityEncoder_v0p0p1_0.x25.A OUT0.t56 VDD.t695 sky130_fd_pr__pfet_01v8_hvt ad=0.135 pd=1.27 as=0.135 ps=1.27 w=1 l=0.15