* NGSPICE file created from flashADC_flat.ext - technology: sky130A

.subckt flashADC_flat VFS OUT3 OUT2 OUT1 OUT0 VL VDD CLK VIN GND
X0 GND.t1394 frontAnalog_v0p0p1_7.x65.X frontAnalog_v0p0p1_7.RSfetsym_0.x2.Y GND.t1393 sky130_fd_pr__nfet_01v8 ad=0.169 pd=1.82 as=0.0878 ps=0.92 w=0.65 l=0.15
X1 OUT3.t63 16to4_PriorityEncoder_v0p0p1_0.x43.Y VDD.t1330 VDD.t1329 sky130_fd_pr__pfet_01v8_hvt ad=0.135 pd=1.27 as=0.135 ps=1.27 w=1 l=0.15
X2 VDD.t1185 frontAnalog_v0p0p1_15.x63.A.t4 a_57123_n85079# VDD.t1184 sky130_fd_pr__pfet_01v8_hvt ad=0.115 pd=1.08 as=0.205 ps=2.1 w=0.79 l=0.15
X3 GND.t1224 16to4_PriorityEncoder_v0p0p1_0.x22.Y OUT0.t127 GND.t1223 sky130_fd_pr__nfet_01v8 ad=0.0878 pd=0.92 as=0.0878 ps=0.92 w=0.65 l=0.15
X4 VDD.t178 frontAnalog_v0p0p1_10.x63.X frontAnalog_v0p0p1_10.Q.t1 VDD.t173 sky130_fd_pr__pfet_01v8 ad=0.58 pd=4.58 as=0.29 ps=2.29 w=2 l=0.25
X5 VDD.t1023 16to4_PriorityEncoder_v0p0p1_0.x36.Y OUT2.t63 VDD.t1022 sky130_fd_pr__pfet_01v8_hvt ad=0.135 pd=1.27 as=0.135 ps=1.27 w=1 l=0.15
X6 VFS.t0 resistorDivider_v0p0p1_0.V16.t2 GND.t506 sky130_fd_pr__res_xhigh_po_5p73 l=2.52
X7 a_78315_n41309# 16to4_PriorityEncoder_v0p0p1_0.x5.x14.B a_78243_n41309# VDD.t556 sky130_fd_pr__pfet_01v8_hvt ad=0.0693 pd=0.75 as=0.0441 ps=0.63 w=0.42 l=0.15
X8 a_16719_n13117.t19 a_16599_n13205.t4 a_16541_n13117.t18 GND.t213 sky130_fd_pr__nfet_01v8_lvt ad=1.16 pd=8.58 as=1.16 ps=8.58 w=4 l=0.6
X9 w_55000_n56928# CLK.t0 frontAnalog_v0p0p1_10.x65.A.t2 VDD.t409 sky130_fd_pr__pfet_01v8_lvt ad=1.16 pd=8.58 as=1.16 ps=8.58 w=4 l=0.35
X10 resistorDivider_v0p0p1_0.V4.t14 resistorDivider_v0p0p1_0.V3.t9 GND.t84 sky130_fd_pr__res_xhigh_po_5p73 l=2.52
X11 frontAnalog_v0p0p1_3.x65.X a_57123_n13359# VDD.t1501 VDD.t1500 sky130_fd_pr__pfet_01v8_hvt ad=0.205 pd=2.1 as=0.115 ps=1.08 w=0.79 l=0.15
X12 VDD.t198 frontAnalog_v0p0p1_9.x63.X frontAnalog_v0p0p1_9.RSfetsym_0.x1.Y VDD.t191 sky130_fd_pr__pfet_01v8_hvt ad=0.135 pd=1.27 as=0.135 ps=1.27 w=1 l=0.15
X13 OUT3.t127 16to4_PriorityEncoder_v0p0p1_0.x43.Y GND.t1385 GND.t1384 sky130_fd_pr__nfet_01v8 ad=0.0878 pd=0.92 as=0.0878 ps=0.92 w=0.65 l=0.15
X14 frontAnalog_v0p0p1_14.x65.A.t0 frontAnalog_v0p0p1_14.x63.A.t4 a_55268_n79536# GND.t1089 sky130_fd_pr__nfet_01v8_lvt ad=0.29 pd=2.58 as=0.29 ps=2.58 w=1 l=0.15
X15 OUT2.t127 16to4_PriorityEncoder_v0p0p1_0.x36.Y GND.t1077 GND.t1076 sky130_fd_pr__nfet_01v8 ad=0.0878 pd=0.92 as=0.0878 ps=0.92 w=0.65 l=0.15
X16 frontAnalog_v0p0p1_5.RSfetsym_0.QN.t3 frontAnalog_v0p0p1_5.RSfetsym_0.x1.Y GND.t1252 GND.t423 sky130_fd_pr__nfet_01v8 ad=0.58 pd=4.58 as=0.58 ps=4.58 w=2 l=0.25
X17 16to4_PriorityEncoder_v0p0p1_0.x29.A 16to4_PriorityEncoder_v0p0p1_0.x28.A VDD.t71 VDD.t70 sky130_fd_pr__pfet_01v8_hvt ad=0.135 pd=1.27 as=0.26 ps=2.52 w=1 l=0.15
X18 resistorDivider_v0p0p1_0.V11.t3 resistorDivider_v0p0p1_0.V10.t4 GND.t59 sky130_fd_pr__res_xhigh_po_5p73 l=2.52
X19 frontAnalog_v0p0p1_6.x63.X a_57123_n31079# GND.t586 GND.t585 sky130_fd_pr__nfet_01v8 ad=0.135 pd=1.56 as=0.0754 ps=0.81 w=0.52 l=0.15
X20 GND.t1383 16to4_PriorityEncoder_v0p0p1_0.x43.Y OUT3.t126 GND.t1382 sky130_fd_pr__nfet_01v8 ad=0.0878 pd=0.92 as=0.0878 ps=0.92 w=0.65 l=0.15
X21 GND.t567 frontAnalog_v0p0p1_8.x63.X frontAnalog_v0p0p1_8.RSfetsym_0.x1.Y GND.t562 sky130_fd_pr__nfet_01v8 ad=0.169 pd=1.82 as=0.0878 ps=0.92 w=0.65 l=0.15
X22 GND.t1075 16to4_PriorityEncoder_v0p0p1_0.x36.Y OUT2.t126 GND.t1074 sky130_fd_pr__nfet_01v8 ad=0.0878 pd=0.92 as=0.0878 ps=0.92 w=0.65 l=0.15
X23 OUT3.t62 16to4_PriorityEncoder_v0p0p1_0.x43.Y VDD.t1328 VDD.t1327 sky130_fd_pr__pfet_01v8_hvt ad=0.135 pd=1.27 as=0.135 ps=1.27 w=1 l=0.15
X24 resistorDivider_v0p0p1_0.V2.t0 resistorDivider_v0p0p1_0.V1.t0 GND.t26 sky130_fd_pr__res_xhigh_po_5p73 l=2.52
X25 a_53630_n84996# resistorDivider_v0p0p1_0.V1.t16 w_55000_n83928# GND.t192 sky130_fd_pr__nfet_01v8_lvt ad=1.16 pd=8.58 as=1.16 ps=8.58 w=4 l=0.6
X26 16to4_PriorityEncoder_v0p0p1_0.x29.Y 16to4_PriorityEncoder_v0p0p1_0.x29.A GND.t481 GND.t480 sky130_fd_pr__nfet_01v8 ad=0.0878 pd=0.92 as=0.0878 ps=0.92 w=0.65 l=0.15
X27 GND.t394 frontAnalog_v0p0p1_15.Q.t5 a_77605_n47345# GND.t65 sky130_fd_pr__nfet_01v8 ad=0.102 pd=0.99 as=0.0567 ps=0.69 w=0.42 l=0.15
X28 VDD.t1174 16to4_PriorityEncoder_v0p0p1_0.x22.Y OUT0.t63 VDD.t1173 sky130_fd_pr__pfet_01v8_hvt ad=0.135 pd=1.27 as=0.135 ps=1.27 w=1 l=0.15
X29 VDD.t1326 16to4_PriorityEncoder_v0p0p1_0.x43.Y OUT3.t61 VDD.t1325 sky130_fd_pr__pfet_01v8_hvt ad=0.135 pd=1.27 as=0.135 ps=1.27 w=1 l=0.15
X30 a_55268_n63336# CLK.t1 GND.t430 GND.t429 sky130_fd_pr__nfet_01v8_lvt ad=0.29 pd=2.58 as=0.29 ps=2.58 w=1 l=0.15
X31 GND.t1504 16to4_PriorityEncoder_v0p0p1_0.x5.x17.A a_78349_n43045# GND.t252 sky130_fd_pr__nfet_01v8 ad=0.102 pd=0.99 as=0.0567 ps=0.69 w=0.42 l=0.15
X32 frontAnalog_v0p0p1_14.RSfetsym_0.x1.Y frontAnalog_v0p0p1_14.x63.X VDD.t584 VDD.t577 sky130_fd_pr__pfet_01v8_hvt ad=0.135 pd=1.27 as=0.26 ps=2.52 w=1 l=0.15
X33 a_77605_n51335# frontAnalog_v0p0p1_12.Q.t5 VDD.t217 VDD.t216 sky130_fd_pr__pfet_01v8_hvt ad=0.0735 pd=0.77 as=0.109 ps=1.36 w=0.42 l=0.15
X34 frontAnalog_v0p0p1_5.RSfetsym_0.x1.Y frontAnalog_v0p0p1_5.x63.X GND.t650 GND.t646 sky130_fd_pr__nfet_01v8 ad=0.0878 pd=0.92 as=0.169 ps=1.82 w=0.65 l=0.15
X35 VDD.t177 frontAnalog_v0p0p1_10.x63.X frontAnalog_v0p0p1_10.RSfetsym_0.x1.Y VDD.t171 sky130_fd_pr__pfet_01v8_hvt ad=0.26 pd=2.52 as=0.135 ps=1.27 w=1 l=0.15
X36 VDD.t782 VDD.t780 a_77605_n43295# VDD.t781 sky130_fd_pr__pfet_01v8_hvt ad=0.312 pd=1.68 as=0.0588 ps=0.7 w=0.42 l=0.15
X37 VDD.t380 16to4_PriorityEncoder_v0p0p1_0.x29.Y OUT1.t63 VDD.t379 sky130_fd_pr__pfet_01v8_hvt ad=0.135 pd=1.27 as=0.135 ps=1.27 w=1 l=0.15
X38 GND.t1381 16to4_PriorityEncoder_v0p0p1_0.x43.Y OUT3.t125 GND.t1380 sky130_fd_pr__nfet_01v8 ad=0.0878 pd=0.92 as=0.0878 ps=0.92 w=0.65 l=0.15
X39 GND.t788 frontAnalog_v0p0p1_8.RSfetsym_0.QN.t5 a_59577_n46683# GND.t787 sky130_fd_pr__nfet_01v8 ad=0.29 pd=2.58 as=0.29 ps=2.58 w=1 l=0.15
X40 GND.t1073 16to4_PriorityEncoder_v0p0p1_0.x36.Y OUT2.t125 GND.t1072 sky130_fd_pr__nfet_01v8 ad=0.0878 pd=0.92 as=0.0878 ps=0.92 w=0.65 l=0.15
X41 GND.t32 frontAnalog_v0p0p1_10.Q.t5 a_59578_n56970# GND.t31 sky130_fd_pr__nfet_01v8 ad=0.29 pd=2.58 as=0.29 ps=2.58 w=1 l=0.15
X42 a_53630_n41796# resistorDivider_v0p0p1_0.V9.t16 w_55000_n40728# GND.t70 sky130_fd_pr__nfet_01v8_lvt ad=1.16 pd=8.58 as=1.16 ps=8.58 w=4 l=0.6
X43 VDD.t1021 16to4_PriorityEncoder_v0p0p1_0.x36.Y OUT2.t62 VDD.t1020 sky130_fd_pr__pfet_01v8_hvt ad=0.135 pd=1.27 as=0.135 ps=1.27 w=1 l=0.15
X44 resistorDivider_v0p0p1_0.V16.t15 resistorDivider_v0p0p1_0.V15.t15 GND.t102 sky130_fd_pr__res_xhigh_po_5p73 l=2.52
X45 OUT1.t127 16to4_PriorityEncoder_v0p0p1_0.x29.Y GND.t393 GND.t392 sky130_fd_pr__nfet_01v8 ad=0.0878 pd=0.92 as=0.0878 ps=0.92 w=0.65 l=0.15
X46 GND.t101 frontAnalog_v0p0p1_12.x65.X frontAnalog_v0p0p1_12.RSfetsym_0.x2.Y GND.t100 sky130_fd_pr__nfet_01v8 ad=0.0878 pd=0.92 as=0.0878 ps=0.92 w=0.65 l=0.15
X47 OUT2.t61 16to4_PriorityEncoder_v0p0p1_0.x36.Y VDD.t1019 VDD.t1018 sky130_fd_pr__pfet_01v8_hvt ad=0.135 pd=1.27 as=0.135 ps=1.27 w=1 l=0.15
X48 GND.t479 16to4_PriorityEncoder_v0p0p1_0.x29.A 16to4_PriorityEncoder_v0p0p1_0.x29.Y GND.t478 sky130_fd_pr__nfet_01v8 ad=0.0878 pd=0.92 as=0.0878 ps=0.92 w=0.65 l=0.15
X49 frontAnalog_v0p0p1_7.RSfetsym_0.x1.Y frontAnalog_v0p0p1_7.x63.X VDD.t736 VDD.t729 sky130_fd_pr__pfet_01v8_hvt ad=0.135 pd=1.27 as=0.26 ps=2.52 w=1 l=0.15
X50 OUT0.t126 16to4_PriorityEncoder_v0p0p1_0.x22.Y GND.t1222 GND.t1221 sky130_fd_pr__nfet_01v8 ad=0.0878 pd=0.92 as=0.0878 ps=0.92 w=0.65 l=0.15
X51 a_77637_n50057# 16to4_PriorityEncoder_v0p0p1_0.x3.EI VDD.t812 VDD.t37 sky130_fd_pr__pfet_01v8_hvt ad=0.0567 pd=0.69 as=0.118 ps=1.4 w=0.42 l=0.15
X52 frontAnalog_v0p0p1_2.x65.A.t2 frontAnalog_v0p0p1_2.x63.A.t4 a_55268_n3936# GND.t679 sky130_fd_pr__nfet_01v8_lvt ad=0.29 pd=2.58 as=0.29 ps=2.58 w=1 l=0.15
X53 VDD.t1378 frontAnalog_v0p0p1_15.x65.X frontAnalog_v0p0p1_15.RSfetsym_0.QN.t3 VDD.t1374 sky130_fd_pr__pfet_01v8 ad=0.58 pd=4.58 as=0.29 ps=2.29 w=2 l=0.25
X54 GND.t1379 16to4_PriorityEncoder_v0p0p1_0.x43.Y OUT3.t124 GND.t1378 sky130_fd_pr__nfet_01v8 ad=0.0878 pd=0.92 as=0.0878 ps=0.92 w=0.65 l=0.15
X55 GND.t1220 16to4_PriorityEncoder_v0p0p1_0.x22.Y OUT0.t125 GND.t1219 sky130_fd_pr__nfet_01v8 ad=0.0878 pd=0.92 as=0.0878 ps=0.92 w=0.65 l=0.15
X56 a_82906_n51645# 16to4_PriorityEncoder_v0p0p1_0.x3.A0 GND.t880 GND.t879 sky130_fd_pr__nfet_01v8 ad=0.0567 pd=0.69 as=0.109 ps=1.36 w=0.42 l=0.15
X57 OUT3.t60 16to4_PriorityEncoder_v0p0p1_0.x43.Y VDD.t1324 VDD.t1323 sky130_fd_pr__pfet_01v8_hvt ad=0.135 pd=1.27 as=0.26 ps=2.52 w=1 l=0.15
X58 frontAnalog_v0p0p1_6.RSfetsym_0.QN.t3 frontAnalog_v0p0p1_6.Q.t5 VDD.t648 VDD.t647 sky130_fd_pr__pfet_01v8 ad=0.58 pd=4.58 as=0.58 ps=4.58 w=2 l=0.3
X59 a_77881_n44527# 16to4_PriorityEncoder_v0p0p1_0.x5.x18.C a_77775_n44527# GND.t154 sky130_fd_pr__nfet_01v8 ad=0.0693 pd=0.75 as=0.0798 ps=0.8 w=0.42 l=0.15
X60 GND.t438 16to4_PriorityEncoder_v0p0p1_0.I13.t5 a_59578_n13770# GND.t437 sky130_fd_pr__nfet_01v8 ad=0.29 pd=2.58 as=0.29 ps=2.58 w=1 l=0.15
X61 OUT3.t123 16to4_PriorityEncoder_v0p0p1_0.x43.Y GND.t1377 GND.t1376 sky130_fd_pr__nfet_01v8 ad=0.0878 pd=0.92 as=0.0878 ps=0.92 w=0.65 l=0.15
X62 16to4_PriorityEncoder_v0p0p1_0.x36.Y 16to4_PriorityEncoder_v0p0p1_0.x36.A GND.t1482 GND.t1481 sky130_fd_pr__nfet_01v8 ad=0.0878 pd=0.92 as=0.0878 ps=0.92 w=0.65 l=0.15
X63 a_53630_n9396# frontAnalog_v0p0p1_10.IB.t3 GND.t504 GND.t503 sky130_fd_pr__nfet_01v8_lvt ad=1.16 pd=8.58 as=1.16 ps=8.58 w=4 l=0.6
X64 VDD.t1322 16to4_PriorityEncoder_v0p0p1_0.x43.Y OUT3.t59 VDD.t1321 sky130_fd_pr__pfet_01v8_hvt ad=0.135 pd=1.27 as=0.135 ps=1.27 w=1 l=0.15
X65 VDD.t609 frontAnalog_v0p0p1_2.x63.A.t5 a_57123_n4079# VDD.t608 sky130_fd_pr__pfet_01v8_hvt ad=0.115 pd=1.08 as=0.205 ps=2.1 w=0.79 l=0.15
X66 frontAnalog_v0p0p1_11.x63.X a_57123_n63479# VDD.t895 VDD.t894 sky130_fd_pr__pfet_01v8_hvt ad=0.205 pd=2.1 as=0.115 ps=1.08 w=0.79 l=0.15
X67 a_77723_n41087# VDD.t1502 a_77637_n41087# GND.t661 sky130_fd_pr__nfet_01v8 ad=0.0567 pd=0.69 as=0.118 ps=1.4 w=0.42 l=0.15
X68 resistorDivider_v0p0p1_0.V14.t8 resistorDivider_v0p0p1_0.V13.t7 GND.t59 sky130_fd_pr__res_xhigh_po_5p73 l=2.52
X69 GND.t521 frontAnalog_v0p0p1_6.x65.X frontAnalog_v0p0p1_6.RSfetsym_0.x2.Y GND.t520 sky130_fd_pr__nfet_01v8 ad=0.0878 pd=0.92 as=0.0878 ps=0.92 w=0.65 l=0.15
X70 GND.t612 16to4_PriorityEncoder_v0p0p1_0.x21.A 16to4_PriorityEncoder_v0p0p1_0.x22.A GND.t611 sky130_fd_pr__nfet_01v8 ad=0.0878 pd=0.92 as=0.0878 ps=0.92 w=0.65 l=0.15
X71 w_55000_n79150# VIN.t0 a_53630_n79596# GND.t613 sky130_fd_pr__nfet_01v8_lvt ad=1.16 pd=8.58 as=1.16 ps=8.58 w=4 l=0.6
X72 GND.t913 frontAnalog_v0p0p1_15.x63.X frontAnalog_v0p0p1_15.RSfetsym_0.x1.Y GND.t908 sky130_fd_pr__nfet_01v8 ad=0.0878 pd=0.92 as=0.0878 ps=0.92 w=0.65 l=0.15
X73 VIN.t1 w_55000_n51528# error sky130_fd_pr__cap_var_lvt w=2 l=0.18
X74 GND.t391 16to4_PriorityEncoder_v0p0p1_0.x29.Y OUT1.t126 GND.t390 sky130_fd_pr__nfet_01v8 ad=0.0878 pd=0.92 as=0.0878 ps=0.92 w=0.65 l=0.15
X75 16to4_PriorityEncoder_v0p0p1_0.x5.x22.C a_77605_n44779# VDD.t748 VDD.t747 sky130_fd_pr__pfet_01v8_hvt ad=0.26 pd=2.52 as=0.312 ps=1.68 w=1 l=0.15
X76 OUT2.t60 16to4_PriorityEncoder_v0p0p1_0.x36.Y VDD.t1017 VDD.t1016 sky130_fd_pr__pfet_01v8_hvt ad=0.135 pd=1.27 as=0.135 ps=1.27 w=1 l=0.15
X77 resistorDivider_v0p0p1_0.V4.t10 resistorDivider_v0p0p1_0.V3.t6 GND.t399 sky130_fd_pr__res_xhigh_po_5p73 l=2.52
X78 16to4_PriorityEncoder_v0p0p1_0.x43.Y 16to4_PriorityEncoder_v0p0p1_0.x43.A VDD.t698 VDD.t697 sky130_fd_pr__pfet_01v8_hvt ad=0.135 pd=1.27 as=0.135 ps=1.27 w=1 l=0.15
X79 VDD.t602 frontAnalog_v0p0p1_4.x65.A.t4 a_57123_n18759# VDD.t601 sky130_fd_pr__pfet_01v8_hvt ad=0.115 pd=1.08 as=0.205 ps=2.1 w=0.79 l=0.15
X80 resistorDivider_v0p0p1_0.V10.t1 resistorDivider_v0p0p1_0.V9.t2 GND.t26 sky130_fd_pr__res_xhigh_po_5p73 l=2.52
X81 OUT0.t62 16to4_PriorityEncoder_v0p0p1_0.x22.Y VDD.t1172 VDD.t1171 sky130_fd_pr__pfet_01v8_hvt ad=0.135 pd=1.27 as=0.135 ps=1.27 w=1 l=0.15
X82 a_78065_n41309# 16to4_PriorityEncoder_v0p0p1_0.x5.x22.A GND.t594 GND.t593 sky130_fd_pr__nfet_01v8 ad=0.0693 pd=0.75 as=0.109 ps=1.36 w=0.42 l=0.15
X83 OUT0.t124 16to4_PriorityEncoder_v0p0p1_0.x22.Y GND.t1218 GND.t1217 sky130_fd_pr__nfet_01v8 ad=0.0878 pd=0.92 as=0.0878 ps=0.92 w=0.65 l=0.15
X84 GND.t1216 16to4_PriorityEncoder_v0p0p1_0.x22.Y OUT0.t123 GND.t1215 sky130_fd_pr__nfet_01v8 ad=0.0878 pd=0.92 as=0.0878 ps=0.92 w=0.65 l=0.15
X85 resistorDivider_v0p0p1_0.V3.t4 resistorDivider_v0p0p1_0.V2.t2 GND.t212 sky130_fd_pr__res_xhigh_po_5p73 l=2.52
X86 VDD.t811 16to4_PriorityEncoder_v0p0p1_0.x3.EI a_77605_n51335# VDD.t810 sky130_fd_pr__pfet_01v8_hvt ad=0.312 pd=1.68 as=0.0588 ps=0.7 w=0.42 l=0.15
X87 resistorDivider_v0p0p1_0.V13.t14 resistorDivider_v0p0p1_0.V12.t15 GND.t26 sky130_fd_pr__res_xhigh_po_5p73 l=2.52
X88 VDD.t1170 16to4_PriorityEncoder_v0p0p1_0.x22.Y OUT0.t61 VDD.t1169 sky130_fd_pr__pfet_01v8_hvt ad=0.135 pd=1.27 as=0.135 ps=1.27 w=1 l=0.15
X89 OUT3.t122 16to4_PriorityEncoder_v0p0p1_0.x43.Y GND.t1375 GND.t1374 sky130_fd_pr__nfet_01v8 ad=0.0878 pd=0.92 as=0.0878 ps=0.92 w=0.65 l=0.15
X90 frontAnalog_v0p0p1_9.x65.A.t2 CLK.t2 frontAnalog_v0p0p1_9.x63.A.t2 VDD.t410 sky130_fd_pr__pfet_01v8_lvt ad=1.16 pd=8.58 as=1.16 ps=8.58 w=4 l=0.35
X91 OUT2.t124 16to4_PriorityEncoder_v0p0p1_0.x36.Y GND.t1071 GND.t1070 sky130_fd_pr__nfet_01v8 ad=0.0878 pd=0.92 as=0.0878 ps=0.92 w=0.65 l=0.15
X92 frontAnalog_v0p0p1_12.RSfetsym_0.x2.Y frontAnalog_v0p0p1_12.x65.X VDD.t79 VDD.t74 sky130_fd_pr__pfet_01v8_hvt ad=0.135 pd=1.27 as=0.135 ps=1.27 w=1 l=0.15
X93 VDD.t1320 16to4_PriorityEncoder_v0p0p1_0.x43.Y OUT3.t58 VDD.t1319 sky130_fd_pr__pfet_01v8_hvt ad=0.26 pd=2.52 as=0.135 ps=1.27 w=1 l=0.15
X94 frontAnalog_v0p0p1_4.x63.X a_57123_n20279# VDD.t873 VDD.t872 sky130_fd_pr__pfet_01v8_hvt ad=0.205 pd=2.1 as=0.115 ps=1.08 w=0.79 l=0.15
X95 GND.t389 16to4_PriorityEncoder_v0p0p1_0.x29.Y OUT1.t125 GND.t388 sky130_fd_pr__nfet_01v8 ad=0.0878 pd=0.92 as=0.0878 ps=0.92 w=0.65 l=0.15
X96 w_55000_n35950# VIN.t2 a_53630_n36396# GND.t405 sky130_fd_pr__nfet_01v8_lvt ad=1.16 pd=8.58 as=1.16 ps=8.58 w=4 l=0.6
X97 GND.t178 frontAnalog_v0p0p1_1.x63.X frontAnalog_v0p0p1_1.RSfetsym_0.x1.Y GND.t173 sky130_fd_pr__nfet_01v8 ad=0.0878 pd=0.92 as=0.0878 ps=0.92 w=0.65 l=0.15
X98 frontAnalog_v0p0p1_10.RSfetsym_0.x2.Y frontAnalog_v0p0p1_10.x65.X GND.t1446 GND.t1445 sky130_fd_pr__nfet_01v8 ad=0.0878 pd=0.92 as=0.169 ps=1.82 w=0.65 l=0.15
X99 GND.t1373 16to4_PriorityEncoder_v0p0p1_0.x43.Y OUT3.t121 GND.t1372 sky130_fd_pr__nfet_01v8 ad=0.0878 pd=0.92 as=0.0878 ps=0.92 w=0.65 l=0.15
X100 VDD.t547 frontAnalog_v0p0p1_10.Q.t6 a_77637_n49127# VDD.t546 sky130_fd_pr__pfet_01v8_hvt ad=0.167 pd=1.39 as=0.0567 ps=0.69 w=0.42 l=0.15
X101 GND.t1480 16to4_PriorityEncoder_v0p0p1_0.x36.A 16to4_PriorityEncoder_v0p0p1_0.x36.Y GND.t1479 sky130_fd_pr__nfet_01v8 ad=0.169 pd=1.82 as=0.0878 ps=0.92 w=0.65 l=0.15
X102 VDD.t571 16to4_PriorityEncoder_v0p0p1_0.x21.A 16to4_PriorityEncoder_v0p0p1_0.x22.A VDD.t570 sky130_fd_pr__pfet_01v8_hvt ad=0.135 pd=1.27 as=0.135 ps=1.27 w=1 l=0.15
X103 frontAnalog_v0p0p1_2.RSfetsym_0.x1.Y frontAnalog_v0p0p1_2.x63.X GND.t1412 GND.t1407 sky130_fd_pr__nfet_01v8 ad=0.0878 pd=0.92 as=0.169 ps=1.82 w=0.65 l=0.15
X104 VDD.t1429 16to4_PriorityEncoder_v0p0p1_0.x36.A 16to4_PriorityEncoder_v0p0p1_0.x36.Y VDD.t1428 sky130_fd_pr__pfet_01v8_hvt ad=0.135 pd=1.27 as=0.135 ps=1.27 w=1 l=0.15
X105 a_16541_n13117.t21 GND.t1402 GND.t799 sky130_fd_pr__res_xhigh_po_5p73 l=85.8
X106 frontAnalog_v0p0p1_14.Q.t4 frontAnalog_v0p0p1_14.RSfetsym_0.x2.Y GND.t1508 GND.t914 sky130_fd_pr__nfet_01v8 ad=0.58 pd=4.58 as=0.58 ps=4.58 w=2 l=0.25
X107 GND.t483 frontAnalog_v0p0p1_9.x65.A.t4 a_57123_n51159# GND.t482 sky130_fd_pr__nfet_01v8 ad=0.0754 pd=0.81 as=0.135 ps=1.56 w=0.52 l=0.15
X108 resistorDivider_v0p0p1_0.V3.t14 resistorDivider_v0p0p1_0.V2.t14 GND.t693 sky130_fd_pr__res_xhigh_po_5p73 l=2.52
X109 VDD.t416 16to4_PriorityEncoder_v0p0p1_0.I13.t6 a_77605_n45765# VDD.t415 sky130_fd_pr__pfet_01v8_hvt ad=0.0567 pd=0.69 as=0.109 ps=1.36 w=0.42 l=0.15
X110 a_77881_n52567# 16to4_PriorityEncoder_v0p0p1_0.x3.x18.C a_77775_n52567# GND.t131 sky130_fd_pr__nfet_01v8 ad=0.0693 pd=0.75 as=0.0798 ps=0.8 w=0.42 l=0.15
X111 16to4_PriorityEncoder_v0p0p1_0.x22.Y 16to4_PriorityEncoder_v0p0p1_0.x22.A GND.t1548 GND.t1547 sky130_fd_pr__nfet_01v8 ad=0.0878 pd=0.92 as=0.0878 ps=0.92 w=0.65 l=0.15
X112 frontAnalog_v0p0p1_9.x63.A.t0 frontAnalog_v0p0p1_9.x65.A.t5 a_55268_n52536# GND.t484 sky130_fd_pr__nfet_01v8_lvt ad=0.29 pd=2.58 as=0.29 ps=2.58 w=1 l=0.15
X113 OUT2.t59 16to4_PriorityEncoder_v0p0p1_0.x36.Y VDD.t1015 VDD.t1014 sky130_fd_pr__pfet_01v8_hvt ad=0.135 pd=1.27 as=0.26 ps=2.52 w=1 l=0.15
X114 OUT0.t60 16to4_PriorityEncoder_v0p0p1_0.x22.Y VDD.t1168 VDD.t1167 sky130_fd_pr__pfet_01v8_hvt ad=0.135 pd=1.27 as=0.135 ps=1.27 w=1 l=0.15
X115 VDD.t1166 16to4_PriorityEncoder_v0p0p1_0.x22.Y OUT0.t59 VDD.t1165 sky130_fd_pr__pfet_01v8_hvt ad=0.135 pd=1.27 as=0.135 ps=1.27 w=1 l=0.15
X116 frontAnalog_v0p0p1_9.Q.t3 frontAnalog_v0p0p1_9.RSfetsym_0.QN.t5 VDD.t215 VDD.t214 sky130_fd_pr__pfet_01v8 ad=0.58 pd=4.58 as=0.58 ps=4.58 w=2 l=0.3
X117 frontAnalog_v0p0p1_6.RSfetsym_0.x2.Y frontAnalog_v0p0p1_6.x65.X VDD.t480 VDD.t475 sky130_fd_pr__pfet_01v8_hvt ad=0.135 pd=1.27 as=0.135 ps=1.27 w=1 l=0.15
X118 GND.t782 16to4_PriorityEncoder_v0p0p1_0.x43.A 16to4_PriorityEncoder_v0p0p1_0.x43.Y GND.t781 sky130_fd_pr__nfet_01v8 ad=0.0878 pd=0.92 as=0.0878 ps=0.92 w=0.65 l=0.15
X119 GND.t387 16to4_PriorityEncoder_v0p0p1_0.x29.Y OUT1.t124 GND.t386 sky130_fd_pr__nfet_01v8 ad=0.0878 pd=0.92 as=0.0878 ps=0.92 w=0.65 l=0.15
X120 OUT2.t58 16to4_PriorityEncoder_v0p0p1_0.x36.Y VDD.t1013 VDD.t1012 sky130_fd_pr__pfet_01v8_hvt ad=0.135 pd=1.27 as=0.135 ps=1.27 w=1 l=0.15
X121 frontAnalog_v0p0p1_3.RSfetsym_0.x2.Y frontAnalog_v0p0p1_3.x65.X GND.t702 GND.t701 sky130_fd_pr__nfet_01v8 ad=0.0878 pd=0.92 as=0.169 ps=1.82 w=0.65 l=0.15
X122 a_77639_n42341# VDD.t777 VDD.t779 VDD.t778 sky130_fd_pr__pfet_01v8_hvt ad=0.0567 pd=0.69 as=0.118 ps=1.4 w=0.42 l=0.15
X123 frontAnalog_v0p0p1_13.RSfetsym_0.x1.Y frontAnalog_v0p0p1_13.x63.X GND.t543 GND.t539 sky130_fd_pr__nfet_01v8 ad=0.0878 pd=0.92 as=0.169 ps=1.82 w=0.65 l=0.15
X124 a_59577_n57483# frontAnalog_v0p0p1_10.x63.X frontAnalog_v0p0p1_10.Q.t2 GND.t185 sky130_fd_pr__nfet_01v8 ad=0.29 pd=2.58 as=0.29 ps=2.58 w=1 l=0.15
X125 a_59578_n67770# frontAnalog_v0p0p1_13.x65.X frontAnalog_v0p0p1_13.RSfetsym_0.QN.t2 GND.t141 sky130_fd_pr__nfet_01v8 ad=0.29 pd=2.58 as=0.315 ps=2.72 w=1 l=0.15
X126 a_77687_n45765# 16to4_PriorityEncoder_v0p0p1_0.I13.t7 a_77605_n45765# GND.t658 sky130_fd_pr__nfet_01v8 ad=0.0441 pd=0.63 as=0.109 ps=1.36 w=0.42 l=0.15
X127 16to4_PriorityEncoder_v0p0p1_0.x42.A 16to4_PriorityEncoder_v0p0p1_0.x5.GS VDD.t1499 VDD.t1498 sky130_fd_pr__pfet_01v8_hvt ad=0.26 pd=2.52 as=0.26 ps=2.52 w=1 l=0.15
X128 16to4_PriorityEncoder_v0p0p1_0.x3.x22.C a_77605_n52819# VDD.t712 VDD.t711 sky130_fd_pr__pfet_01v8_hvt ad=0.26 pd=2.52 as=0.312 ps=1.68 w=1 l=0.15
X129 resistorDivider_v0p0p1_0.V2.t5 resistorDivider_v0p0p1_0.V1.t8 GND.t60 sky130_fd_pr__res_xhigh_po_5p73 l=2.52
X130 VDD.t1011 16to4_PriorityEncoder_v0p0p1_0.x36.Y OUT2.t57 VDD.t1010 sky130_fd_pr__pfet_01v8_hvt ad=0.135 pd=1.27 as=0.135 ps=1.27 w=1 l=0.15
X131 OUT1.t123 16to4_PriorityEncoder_v0p0p1_0.x29.Y GND.t385 GND.t384 sky130_fd_pr__nfet_01v8 ad=0.0878 pd=0.92 as=0.0878 ps=0.92 w=0.65 l=0.15
X132 frontAnalog_v0p0p1_7.x63.A.t3 frontAnalog_v0p0p1_7.x65.A.t4 VDD.t1446 VDD.t18 sky130_fd_pr__pfet_01v8_lvt ad=1.16 pd=8.58 as=1.16 ps=8.58 w=4 l=0.35
X133 frontAnalog_v0p0p1_7.Q.t4 frontAnalog_v0p0p1_7.RSfetsym_0.x2.Y GND.t1569 GND.t623 sky130_fd_pr__nfet_01v8 ad=0.58 pd=4.58 as=0.58 ps=4.58 w=2 l=0.25
X134 resistorDivider_v0p0p1_0.V7.t16 w_55000_n52150# error sky130_fd_pr__cap_var_lvt w=2 l=0.18
X135 a_16719_n13117.t18 a_16599_n13205.t5 a_16541_n13117.t17 GND.t214 sky130_fd_pr__nfet_01v8_lvt ad=1.16 pd=8.58 as=1.16 ps=8.58 w=4 l=0.6
X136 16to4_PriorityEncoder_v0p0p1_0.x5.x14.B a_77637_n41087# GND.t121 GND.t120 sky130_fd_pr__nfet_01v8 ad=0.182 pd=1.86 as=0.112 ps=1.04 w=0.65 l=0.15
X137 OUT0.t122 16to4_PriorityEncoder_v0p0p1_0.x22.Y GND.t1214 GND.t1213 sky130_fd_pr__nfet_01v8 ad=0.0878 pd=0.92 as=0.0878 ps=0.92 w=0.65 l=0.15
X138 GND.t1449 16to4_PriorityEncoder_v0p0p1_0.x3.x14.A a_78065_n49349# GND.t1448 sky130_fd_pr__nfet_01v8 ad=0.102 pd=0.99 as=0.0567 ps=0.69 w=0.42 l=0.15
X139 a_78703_n45515# 16to4_PriorityEncoder_v0p0p1_0.x5.x22.C a_78607_n45515# VDD.t152 sky130_fd_pr__pfet_01v8_hvt ad=0.0441 pd=0.63 as=0.0693 ps=0.75 w=0.42 l=0.15
X140 frontAnalog_v0p0p1_2.x65.X a_57123_n2559# GND.t225 GND.t224 sky130_fd_pr__nfet_01v8 ad=0.135 pd=1.56 as=0.0754 ps=0.81 w=0.52 l=0.15
X141 16to4_PriorityEncoder_v0p0p1_0.x22.Y 16to4_PriorityEncoder_v0p0p1_0.x22.A VDD.t1481 VDD.t1480 sky130_fd_pr__pfet_01v8_hvt ad=0.135 pd=1.27 as=0.135 ps=1.27 w=1 l=0.15
X142 a_16719_n13117.t21 a_16719_n13117.t20 a_16599_n13205.t2 GND.t916 sky130_fd_pr__nfet_01v8_lvt ad=0.122 pd=1.42 as=0.122 ps=1.42 w=0.42 l=0.15
X143 resistorDivider_v0p0p1_0.V6.t15 resistorDivider_v0p0p1_0.V5.t15 GND.t506 sky130_fd_pr__res_xhigh_po_5p73 l=2.52
X144 VDD.t11 frontAnalog_v0p0p1_8.x65.X frontAnalog_v0p0p1_8.RSfetsym_0.x2.Y VDD.t4 sky130_fd_pr__pfet_01v8_hvt ad=0.135 pd=1.27 as=0.135 ps=1.27 w=1 l=0.15
X145 GND.t1371 16to4_PriorityEncoder_v0p0p1_0.x43.Y OUT3.t120 GND.t1370 sky130_fd_pr__nfet_01v8 ad=0.0878 pd=0.92 as=0.0878 ps=0.92 w=0.65 l=0.15
X146 GND.t1546 16to4_PriorityEncoder_v0p0p1_0.x22.A 16to4_PriorityEncoder_v0p0p1_0.x22.Y GND.t1545 sky130_fd_pr__nfet_01v8 ad=0.0878 pd=0.92 as=0.0878 ps=0.92 w=0.65 l=0.15
X147 VDD.t1009 16to4_PriorityEncoder_v0p0p1_0.x36.Y OUT2.t56 VDD.t1008 sky130_fd_pr__pfet_01v8_hvt ad=0.135 pd=1.27 as=0.135 ps=1.27 w=1 l=0.15
X148 VDD.t1187 frontAnalog_v0p0p1_13.x63.A.t4 a_57123_n68879# VDD.t1186 sky130_fd_pr__pfet_01v8_hvt ad=0.115 pd=1.08 as=0.205 ps=2.1 w=0.79 l=0.15
X149 a_59577_n14283# frontAnalog_v0p0p1_3.x63.X 16to4_PriorityEncoder_v0p0p1_0.I13.t2 GND.t242 sky130_fd_pr__nfet_01v8 ad=0.29 pd=2.58 as=0.29 ps=2.58 w=1 l=0.15
X150 a_59578_n24570# frontAnalog_v0p0p1_5.x65.X frontAnalog_v0p0p1_5.RSfetsym_0.QN.t0 GND.t150 sky130_fd_pr__nfet_01v8 ad=0.29 pd=2.58 as=0.315 ps=2.72 w=1 l=0.15
X151 16to4_PriorityEncoder_v0p0p1_0.x29.Y 16to4_PriorityEncoder_v0p0p1_0.x29.A GND.t477 GND.t476 sky130_fd_pr__nfet_01v8 ad=0.0878 pd=0.92 as=0.0878 ps=0.92 w=0.65 l=0.15
X152 resistorDivider_v0p0p1_0.V7.t12 resistorDivider_v0p0p1_0.V6.t10 GND.t75 sky130_fd_pr__res_xhigh_po_5p73 l=2.52
X153 frontAnalog_v0p0p1_9.Q.t1 frontAnalog_v0p0p1_9.x63.X VDD.t197 VDD.t194 sky130_fd_pr__pfet_01v8 ad=0.29 pd=2.29 as=0.58 ps=4.58 w=2 l=0.25
X154 a_53630_n63396# frontAnalog_v0p0p1_10.IB.t4 GND.t505 GND.t186 sky130_fd_pr__nfet_01v8_lvt ad=1.16 pd=8.58 as=1.16 ps=8.58 w=4 l=0.6
X155 16to4_PriorityEncoder_v0p0p1_0.x5.x22.A a_77639_n42341# VDD.t573 VDD.t572 sky130_fd_pr__pfet_01v8_hvt ad=0.475 pd=2.95 as=0.167 ps=1.39 w=1 l=0.15
X156 frontAnalog_v0p0p1_0.RSfetsym_0.x1.Y frontAnalog_v0p0p1_0.x63.X GND.t1559 GND.t1555 sky130_fd_pr__nfet_01v8 ad=0.0878 pd=0.92 as=0.0878 ps=0.92 w=0.65 l=0.15
X157 16to4_PriorityEncoder_v0p0p1_0.x43.Y 16to4_PriorityEncoder_v0p0p1_0.x43.A GND.t780 GND.t779 sky130_fd_pr__nfet_01v8 ad=0.0878 pd=0.92 as=0.0878 ps=0.92 w=0.65 l=0.15
X158 VDD.t239 frontAnalog_v0p0p1_10.x63.A.t4 frontAnalog_v0p0p1_10.x65.A.t0 VDD.t108 sky130_fd_pr__pfet_01v8_lvt ad=1.16 pd=8.58 as=1.16 ps=8.58 w=4 l=0.35
X159 OUT2.t123 16to4_PriorityEncoder_v0p0p1_0.x36.Y GND.t1069 GND.t1068 sky130_fd_pr__nfet_01v8 ad=0.0878 pd=0.92 as=0.169 ps=1.82 w=0.65 l=0.15
X160 frontAnalog_v0p0p1_0.RSfetsym_0.x2.Y frontAnalog_v0p0p1_0.x65.X GND.t263 GND.t262 sky130_fd_pr__nfet_01v8 ad=0.0878 pd=0.92 as=0.169 ps=1.82 w=0.65 l=0.15
X161 OUT1.t62 16to4_PriorityEncoder_v0p0p1_0.x29.Y VDD.t378 VDD.t377 sky130_fd_pr__pfet_01v8_hvt ad=0.135 pd=1.27 as=0.135 ps=1.27 w=1 l=0.15
X162 w_55000_n8950# VIN.t3 a_53630_n9396# GND.t558 sky130_fd_pr__nfet_01v8_lvt ad=1.16 pd=8.58 as=1.16 ps=8.58 w=4 l=0.6
X163 VDD.t549 frontAnalog_v0p0p1_10.Q.t7 a_77605_n53805# VDD.t548 sky130_fd_pr__pfet_01v8_hvt ad=0.0567 pd=0.69 as=0.109 ps=1.36 w=0.42 l=0.15
X164 frontAnalog_v0p0p1_12.x65.X a_57123_n72759# GND.t926 GND.t17 sky130_fd_pr__nfet_01v8 ad=0.135 pd=1.56 as=0.0754 ps=0.81 w=0.52 l=0.15
X165 VDD.t376 16to4_PriorityEncoder_v0p0p1_0.x29.Y OUT1.t61 VDD.t375 sky130_fd_pr__pfet_01v8_hvt ad=0.135 pd=1.27 as=0.135 ps=1.27 w=1 l=0.15
X166 OUT0.t58 16to4_PriorityEncoder_v0p0p1_0.x22.Y VDD.t1164 VDD.t1163 sky130_fd_pr__pfet_01v8_hvt ad=0.135 pd=1.27 as=0.135 ps=1.27 w=1 l=0.15
X167 frontAnalog_v0p0p1_4.RSfetsym_0.x2.Y frontAnalog_v0p0p1_4.x65.X GND.t903 GND.t902 sky130_fd_pr__nfet_01v8 ad=0.0878 pd=0.92 as=0.0878 ps=0.92 w=0.65 l=0.15
X168 GND.t1369 16to4_PriorityEncoder_v0p0p1_0.x43.Y OUT3.t119 GND.t1368 sky130_fd_pr__nfet_01v8 ad=0.0878 pd=0.92 as=0.0878 ps=0.92 w=0.65 l=0.15
X169 VDD.t407 frontAnalog_v0p0p1_5.x63.A.t4 a_57123_n25679# VDD.t406 sky130_fd_pr__pfet_01v8_hvt ad=0.115 pd=1.08 as=0.205 ps=2.1 w=0.79 l=0.15
X170 GND.t1212 16to4_PriorityEncoder_v0p0p1_0.x22.Y OUT0.t121 GND.t1211 sky130_fd_pr__nfet_01v8 ad=0.0878 pd=0.92 as=0.0878 ps=0.92 w=0.65 l=0.15
X171 a_53630_n20196# frontAnalog_v0p0p1_10.IB.t5 GND.t441 GND.t186 sky130_fd_pr__nfet_01v8_lvt ad=1.16 pd=8.58 as=1.16 ps=8.58 w=4 l=0.6
X172 a_77639_n50381# 16to4_PriorityEncoder_v0p0p1_0.x3.EI VDD.t809 VDD.t808 sky130_fd_pr__pfet_01v8_hvt ad=0.0567 pd=0.69 as=0.118 ps=1.4 w=0.42 l=0.15
X173 VDD.t1427 16to4_PriorityEncoder_v0p0p1_0.x36.A 16to4_PriorityEncoder_v0p0p1_0.x36.Y VDD.t1426 sky130_fd_pr__pfet_01v8_hvt ad=0.135 pd=1.27 as=0.135 ps=1.27 w=1 l=0.15
X174 VDD.t1479 16to4_PriorityEncoder_v0p0p1_0.x22.A 16to4_PriorityEncoder_v0p0p1_0.x22.Y VDD.t1478 sky130_fd_pr__pfet_01v8_hvt ad=0.135 pd=1.27 as=0.135 ps=1.27 w=1 l=0.15
X175 VDD.t817 frontAnalog_v0p0p1_3.x63.A.t4 frontAnalog_v0p0p1_3.x65.A.t2 VDD.t485 sky130_fd_pr__pfet_01v8_lvt ad=1.16 pd=8.58 as=1.16 ps=8.58 w=4 l=0.35
X176 OUT3.t118 16to4_PriorityEncoder_v0p0p1_0.x43.Y GND.t1367 GND.t1366 sky130_fd_pr__nfet_01v8 ad=0.0878 pd=0.92 as=0.0878 ps=0.92 w=0.65 l=0.15
X177 VDD.t237 frontAnalog_v0p0p1_15.x65.A.t4 a_57123_n83559# VDD.t236 sky130_fd_pr__pfet_01v8_hvt ad=0.115 pd=1.08 as=0.205 ps=2.1 w=0.79 l=0.15
X178 GND.t1090 frontAnalog_v0p0p1_14.x63.A.t5 a_57123_n79679# GND.t433 sky130_fd_pr__nfet_01v8 ad=0.0754 pd=0.81 as=0.135 ps=1.56 w=0.52 l=0.15
X179 a_55268_n47136# CLK.t3 GND.t432 GND.t431 sky130_fd_pr__nfet_01v8_lvt ad=0.29 pd=2.58 as=0.29 ps=2.58 w=1 l=0.15
X180 frontAnalog_v0p0p1_1.RSfetsym_0.x2.Y frontAnalog_v0p0p1_1.x65.X GND.t688 GND.t687 sky130_fd_pr__nfet_01v8 ad=0.0878 pd=0.92 as=0.0878 ps=0.92 w=0.65 l=0.15
X181 VDD.t78 frontAnalog_v0p0p1_12.x65.X frontAnalog_v0p0p1_12.RSfetsym_0.x2.Y VDD.t74 sky130_fd_pr__pfet_01v8_hvt ad=0.26 pd=2.52 as=0.135 ps=1.27 w=1 l=0.15
X182 GND.t221 16to4_PriorityEncoder_v0p0p1_0.x3.x17.C a_78349_n51085# GND.t165 sky130_fd_pr__nfet_01v8 ad=0.0567 pd=0.69 as=0.0693 ps=0.75 w=0.42 l=0.15
X183 frontAnalog_v0p0p1_4.x65.A.t2 frontAnalog_v0p0p1_4.x63.A.t4 a_55268_n20136# GND.t1241 sky130_fd_pr__nfet_01v8_lvt ad=0.29 pd=2.58 as=0.29 ps=2.58 w=1 l=0.15
X184 frontAnalog_v0p0p1_9.RSfetsym_0.QN.t4 frontAnalog_v0p0p1_9.Q.t5 VDD.t1445 VDD.t214 sky130_fd_pr__pfet_01v8 ad=0.58 pd=4.58 as=0.58 ps=4.58 w=2 l=0.3
X185 OUT3.t57 16to4_PriorityEncoder_v0p0p1_0.x43.Y VDD.t1318 VDD.t1317 sky130_fd_pr__pfet_01v8_hvt ad=0.135 pd=1.27 as=0.135 ps=1.27 w=1 l=0.15
X186 resistorDivider_v0p0p1_0.V10.t0 resistorDivider_v0p0p1_0.V9.t1 GND.t60 sky130_fd_pr__res_xhigh_po_5p73 l=2.52
X187 a_78703_n53555# 16to4_PriorityEncoder_v0p0p1_0.x3.x22.C a_78607_n53555# VDD.t574 sky130_fd_pr__pfet_01v8_hvt ad=0.0441 pd=0.63 as=0.0693 ps=0.75 w=0.42 l=0.15
X188 GND.t1210 16to4_PriorityEncoder_v0p0p1_0.x22.Y OUT0.t120 GND.t1209 sky130_fd_pr__nfet_01v8 ad=0.0878 pd=0.92 as=0.0878 ps=0.92 w=0.65 l=0.15
X189 OUT1.t122 16to4_PriorityEncoder_v0p0p1_0.x29.Y GND.t383 GND.t382 sky130_fd_pr__nfet_01v8 ad=0.0878 pd=0.92 as=0.0878 ps=0.92 w=0.65 l=0.15
X190 resistorDivider_v0p0p1_0.V12.t9 resistorDivider_v0p0p1_0.V11.t9 GND.t211 sky130_fd_pr__res_xhigh_po_5p73 l=2.52
X191 resistorDivider_v0p0p1_0.V3.t10 resistorDivider_v0p0p1_0.V2.t9 GND.t615 sky130_fd_pr__res_xhigh_po_5p73 l=2.52
X192 a_77775_n51335# 16to4_PriorityEncoder_v0p0p1_0.x3.x19.C a_77687_n51335# GND.t157 sky130_fd_pr__nfet_01v8 ad=0.0798 pd=0.8 as=0.0609 ps=0.71 w=0.42 l=0.15
X193 16to4_PriorityEncoder_v0p0p1_0.x43.A 16to4_PriorityEncoder_v0p0p1_0.x42.A VDD.t662 VDD.t661 sky130_fd_pr__pfet_01v8_hvt ad=0.135 pd=1.27 as=0.26 ps=2.52 w=1 l=0.15
X194 a_53630_n25596# resistorDivider_v0p0p1_0.V12.t16 w_55000_n24528# GND.t63 sky130_fd_pr__nfet_01v8_lvt ad=1.16 pd=8.58 as=1.16 ps=8.58 w=4 l=0.6
X195 resistorDivider_v0p0p1_0.V13.t4 resistorDivider_v0p0p1_0.V12.t3 GND.t60 sky130_fd_pr__res_xhigh_po_5p73 l=2.52
X196 OUT3.t117 16to4_PriorityEncoder_v0p0p1_0.x43.Y GND.t1365 GND.t1364 sky130_fd_pr__nfet_01v8 ad=0.0878 pd=0.92 as=0.0878 ps=0.92 w=0.65 l=0.15
X197 16to4_PriorityEncoder_v0p0p1_0.x28.A 16to4_PriorityEncoder_v0p0p1_0.x1.X GND.t883 GND.t882 sky130_fd_pr__nfet_01v8 ad=0.169 pd=1.82 as=0.169 ps=1.82 w=0.65 l=0.15
X198 VDD.t1162 16to4_PriorityEncoder_v0p0p1_0.x22.Y OUT0.t57 VDD.t1161 sky130_fd_pr__pfet_01v8_hvt ad=0.135 pd=1.27 as=0.135 ps=1.27 w=1 l=0.15
X199 VDD.t1007 16to4_PriorityEncoder_v0p0p1_0.x36.Y OUT2.t55 VDD.t1006 sky130_fd_pr__pfet_01v8_hvt ad=0.135 pd=1.27 as=0.135 ps=1.27 w=1 l=0.15
X200 frontAnalog_v0p0p1_9.RSfetsym_0.x2.Y frontAnalog_v0p0p1_9.x65.X VDD.t638 VDD.t633 sky130_fd_pr__pfet_01v8_hvt ad=0.135 pd=1.27 as=0.26 ps=2.52 w=1 l=0.15
X201 VDD.t1196 frontAnalog_v0p0p1_1.x65.A.t4 a_57123_n40359# VDD.t1195 sky130_fd_pr__pfet_01v8_hvt ad=0.115 pd=1.08 as=0.205 ps=2.1 w=0.79 l=0.15
X202 GND.t733 frontAnalog_v0p0p1_7.x63.A.t4 a_57123_n36479# GND.t732 sky130_fd_pr__nfet_01v8 ad=0.0754 pd=0.81 as=0.135 ps=1.56 w=0.52 l=0.15
X203 frontAnalog_v0p0p1_10.RSfetsym_0.QN.t3 frontAnalog_v0p0p1_10.x65.X VDD.t1390 VDD.t1386 sky130_fd_pr__pfet_01v8 ad=0.29 pd=2.29 as=0.58 ps=4.58 w=2 l=0.25