* NGSPICE file created from 16to4_PriorityEncoder_v0p0p1_flat.ext - technology: sky130A

.subckt 16to4_PriorityEncoder_v0p0p1_flat I15 I14 I13 I12 I11 I10 I9 I8 I7 I6 I5 I4 I3 I2 I1 I0 EI VDD GND A3 A2 A1 A0
X0 x36.Y x36.A VDD.t427 VDD.t426 sky130_fd_pr__pfet_01v8_hvt ad=0.135 pd=1.27 as=0.135 ps=1.27 w=1 l=0.15
X1 A2.t120 x36.Y VDD.t387 VDD.t386 sky130_fd_pr__pfet_01v8_hvt ad=0.135 pd=1.27 as=0.135 ps=1.27 w=1 l=0.15
X2 VDD.t250 x22.A x22.Y VDD.t249 sky130_fd_pr__pfet_01v8_hvt ad=0.135 pd=1.27 as=0.135 ps=1.27 w=1 l=0.15
X3 A2.t119 x36.Y VDD.t385 VDD.t384 sky130_fd_pr__pfet_01v8_hvt ad=0.135 pd=1.27 as=0.135 ps=1.27 w=1 l=0.15
X4 a_6111_n9215# x3.x2.X a_6029_n9459# VDD.t477 sky130_fd_pr__pfet_01v8_hvt ad=0.0441 pd=0.63 as=0.109 ps=1.36 w=0.42 l=0.15
X5 VDD.t425 x36.A x36.Y VDD.t424 sky130_fd_pr__pfet_01v8_hvt ad=0.135 pd=1.27 as=0.135 ps=1.27 w=1 l=0.15
X6 VDD.t383 x36.Y A2.t118 VDD.t382 sky130_fd_pr__pfet_01v8_hvt ad=0.135 pd=1.27 as=0.135 ps=1.27 w=1 l=0.15
X7 x3.x18.C I2.t0 VDD.t457 VDD.t456 sky130_fd_pr__pfet_01v8_hvt ad=0.26 pd=2.52 as=0.26 ps=2.52 w=1 l=0.15
X8 a_5751_n6397# x5.x18.C a_5645_n6397# GND.t84 sky130_fd_pr__nfet_01v8 ad=0.0693 pd=0.75 as=0.0798 ps=0.8 w=0.42 l=0.15
X9 x29.A x28.A VDD.t781 VDD.t780 sky130_fd_pr__pfet_01v8_hvt ad=0.135 pd=1.27 as=0.135 ps=1.27 w=1 l=0.15
X10 A0.t127 x22.Y VDD.t218 VDD.t217 sky130_fd_pr__pfet_01v8_hvt ad=0.135 pd=1.27 as=0.135 ps=1.27 w=1 l=0.15
X11 GND.t219 x22.Y A0.t63 GND.t218 sky130_fd_pr__nfet_01v8 ad=0.0878 pd=0.92 as=0.0878 ps=0.92 w=0.65 l=0.15
X12 VDD.t216 x22.Y A0.t126 VDD.t215 sky130_fd_pr__pfet_01v8_hvt ad=0.135 pd=1.27 as=0.135 ps=1.27 w=1 l=0.15
X13 VDD.t88 I12.t0 a_5507_n2647# VDD.t87 sky130_fd_pr__pfet_01v8_hvt ad=0.167 pd=1.39 as=0.0567 ps=0.69 w=0.42 l=0.15
X14 x5.x19.C I12.t1 GND.t456 GND.t455 sky130_fd_pr__nfet_01v8 ad=0.169 pd=1.82 as=0.169 ps=1.82 w=0.65 l=0.15
X15 x5.x22.A a_5509_n4211# VDD.t555 VDD.t554 sky130_fd_pr__pfet_01v8_hvt ad=0.475 pd=2.95 as=0.167 ps=1.39 w=1 l=0.15
X16 VDD.t929 x29.Y A1.t127 VDD.t928 sky130_fd_pr__pfet_01v8_hvt ad=0.135 pd=1.27 as=0.135 ps=1.27 w=1 l=0.15
X17 VDD.t927 x29.Y A1.t126 VDD.t926 sky130_fd_pr__pfet_01v8_hvt ad=0.135 pd=1.27 as=0.135 ps=1.27 w=1 l=0.15
X18 VDD.t796 I12.t2 a_5725_n1939# VDD.t795 sky130_fd_pr__pfet_01v8_hvt ad=0.148 pd=1.34 as=0.0693 ps=0.75 w=0.42 l=0.15
X19 GND.t61 I15.t0 a_5595_n4211# GND.t60 sky130_fd_pr__nfet_01v8 ad=0.112 pd=1.04 as=0.0567 ps=0.69 w=0.42 l=0.15
X20 A1.t125 x29.Y VDD.t925 VDD.t924 sky130_fd_pr__pfet_01v8_hvt ad=0.135 pd=1.27 as=0.135 ps=1.27 w=1 l=0.15
X21 A1.t124 x29.Y VDD.t923 VDD.t922 sky130_fd_pr__pfet_01v8_hvt ad=0.135 pd=1.27 as=0.135 ps=1.27 w=1 l=0.15
X22 GND.t217 x22.Y A0.t62 GND.t216 sky130_fd_pr__nfet_01v8 ad=0.0878 pd=0.92 as=0.0878 ps=0.92 w=0.65 l=0.15
X23 GND.t499 x5.x17.A a_5935_n3179# GND.t498 sky130_fd_pr__nfet_01v8 ad=0.0567 pd=0.69 as=0.0693 ps=0.75 w=0.42 l=0.15
X24 A0.t61 x22.Y GND.t215 GND.t214 sky130_fd_pr__nfet_01v8 ad=0.0878 pd=0.92 as=0.0878 ps=0.92 w=0.65 l=0.15
X25 VDD.t214 x22.Y A0.t125 VDD.t213 sky130_fd_pr__pfet_01v8_hvt ad=0.135 pd=1.27 as=0.135 ps=1.27 w=1 l=0.15
X26 GND.t766 x5.x21.B a_6053_n7607# GND.t765 sky130_fd_pr__nfet_01v8 ad=0.112 pd=1.04 as=0.0567 ps=0.69 w=0.42 l=0.15
X27 a_5935_n3179# x5.x22.A GND.t401 GND.t400 sky130_fd_pr__nfet_01v8 ad=0.0693 pd=0.75 as=0.109 ps=1.36 w=0.42 l=0.15
X28 GND.t908 x29.Y A1.t63 GND.t907 sky130_fd_pr__nfet_01v8 ad=0.0878 pd=0.92 as=0.0878 ps=0.92 w=0.65 l=0.15
X29 GND.t391 x36.Y A2.t30 GND.t390 sky130_fd_pr__nfet_01v8 ad=0.169 pd=1.82 as=0.0878 ps=0.92 w=0.65 l=0.15
X30 x3.x19.X a_5475_n14689# GND.t579 GND.t578 sky130_fd_pr__nfet_01v8 ad=0.169 pd=1.82 as=0.196 ps=1.33 w=0.65 l=0.15
X31 VDD.t474 EI.t0 a_5475_n7635# VDD.t473 sky130_fd_pr__pfet_01v8_hvt ad=0.142 pd=1.34 as=0.0662 ps=0.735 w=0.42 l=0.15
X32 VDD.t212 x22.Y A0.t124 VDD.t211 sky130_fd_pr__pfet_01v8_hvt ad=0.135 pd=1.27 as=0.135 ps=1.27 w=1 l=0.15
X33 A0.t123 x22.Y VDD.t210 VDD.t209 sky130_fd_pr__pfet_01v8_hvt ad=0.135 pd=1.27 as=0.135 ps=1.27 w=1 l=0.15
X34 GND.t906 x29.Y A1.t62 GND.t905 sky130_fd_pr__nfet_01v8 ad=0.0878 pd=0.92 as=0.0878 ps=0.92 w=0.65 l=0.15
X35 A2.t15 x36.Y GND.t389 GND.t388 sky130_fd_pr__nfet_01v8 ad=0.0878 pd=0.92 as=0.0878 ps=0.92 w=0.65 l=0.15
X36 x29.Y x29.A GND.t36 GND.t35 sky130_fd_pr__nfet_01v8 ad=0.0878 pd=0.92 as=0.0878 ps=0.92 w=0.65 l=0.15
X37 a_5645_n5165# x5.x19.C a_5557_n5165# GND.t2 sky130_fd_pr__nfet_01v8 ad=0.0798 pd=0.8 as=0.0609 ps=0.71 w=0.42 l=0.15
X38 a_10858_n5725# x3.A2 a_10776_n5725# VDD.t60 sky130_fd_pr__pfet_01v8_hvt ad=0.0441 pd=0.63 as=0.109 ps=1.36 w=0.42 l=0.15
X39 VDD.t381 x36.Y A2.t117 VDD.t380 sky130_fd_pr__pfet_01v8_hvt ad=0.26 pd=2.52 as=0.135 ps=1.27 w=1 l=0.15
X40 a_5557_n13455# I3.t0 a_5475_n13455# GND.t576 sky130_fd_pr__nfet_01v8 ad=0.0609 pd=0.71 as=0.109 ps=1.36 w=0.42 l=0.15
X41 GND.t433 x36.A x36.Y GND.t432 sky130_fd_pr__nfet_01v8 ad=0.0878 pd=0.92 as=0.0878 ps=0.92 w=0.65 l=0.15
X42 a_5725_n9215# I1.t0 a_5653_n9215# VDD.t562 sky130_fd_pr__pfet_01v8_hvt ad=0.0693 pd=0.75 as=0.0441 ps=0.63 w=0.42 l=0.15
X43 VDD.t597 I3.t1 a_5475_n14689# VDD.t596 sky130_fd_pr__pfet_01v8_hvt ad=0.0777 pd=0.79 as=0.0735 ps=0.77 w=0.42 l=0.15
X44 A3.t63 x43.Y GND.t730 GND.t729 sky130_fd_pr__nfet_01v8 ad=0.0878 pd=0.92 as=0.0878 ps=0.92 w=0.65 l=0.15
X45 a_6183_n9215# x3.x1.X a_6111_n9215# VDD.t611 sky130_fd_pr__pfet_01v8_hvt ad=0.0693 pd=0.75 as=0.0441 ps=0.63 w=0.42 l=0.15
X46 a_6469_n12955# x3.x22.A a_6397_n12955# VDD.t773 sky130_fd_pr__pfet_01v8_hvt ad=0.0693 pd=0.75 as=0.0441 ps=0.63 w=0.42 l=0.15
X47 x3.GS a_6519_n9437# GND.t558 GND.t557 sky130_fd_pr__nfet_01v8 ad=0.182 pd=1.86 as=0.112 ps=1.04 w=0.65 l=0.15
X48 GND.t904 x29.Y A1.t61 GND.t903 sky130_fd_pr__nfet_01v8 ad=0.0878 pd=0.92 as=0.0878 ps=0.92 w=0.65 l=0.15
X49 A1.t60 x29.Y GND.t902 GND.t901 sky130_fd_pr__nfet_01v8 ad=0.0878 pd=0.92 as=0.0878 ps=0.92 w=0.65 l=0.15
X50 A2.t116 x36.Y VDD.t379 VDD.t378 sky130_fd_pr__pfet_01v8_hvt ad=0.135 pd=1.27 as=0.135 ps=1.27 w=1 l=0.15
X51 VDD.t423 x36.A x36.Y VDD.t422 sky130_fd_pr__pfet_01v8_hvt ad=0.135 pd=1.27 as=0.135 ps=1.27 w=1 l=0.15
X52 GND.t543 x3.x4.A a_6029_n9459# GND.t542 sky130_fd_pr__nfet_01v8 ad=0.102 pd=0.99 as=0.0567 ps=0.69 w=0.42 l=0.15
X53 A3.t127 x43.Y VDD.t749 VDD.t748 sky130_fd_pr__pfet_01v8_hvt ad=0.135 pd=1.27 as=0.135 ps=1.27 w=1 l=0.15
X54 A3.t62 x43.Y GND.t728 GND.t727 sky130_fd_pr__nfet_01v8 ad=0.0878 pd=0.92 as=0.169 ps=1.82 w=0.65 l=0.15
X55 A3.t61 x43.Y GND.t726 GND.t725 sky130_fd_pr__nfet_01v8 ad=0.0878 pd=0.92 as=0.0878 ps=0.92 w=0.65 l=0.15
X56 x3.GS a_6519_n9437# VDD.t571 VDD.t570 sky130_fd_pr__pfet_01v8_hvt ad=0.475 pd=2.95 as=0.167 ps=1.39 w=1 l=0.15
X57 A0.t60 x22.Y GND.t213 GND.t212 sky130_fd_pr__nfet_01v8 ad=0.0878 pd=0.92 as=0.0878 ps=0.92 w=0.65 l=0.15
X58 A1.t59 x29.Y GND.t900 GND.t899 sky130_fd_pr__nfet_01v8 ad=0.0878 pd=0.92 as=0.0878 ps=0.92 w=0.65 l=0.15
X59 VDD.t779 x28.A x29.A VDD.t778 sky130_fd_pr__pfet_01v8_hvt ad=0.135 pd=1.27 as=0.135 ps=1.27 w=1 l=0.15
X60 GND.t577 x3.EI a_5751_n13455# GND.t576 sky130_fd_pr__nfet_01v8 ad=0.196 pd=1.33 as=0.0693 ps=0.75 w=0.42 l=0.15
X61 x3.x11.X a_5507_n10997# VDD.t488 VDD.t471 sky130_fd_pr__pfet_01v8_hvt ad=0.475 pd=2.95 as=0.167 ps=1.39 w=1 l=0.15
X62 a_5475_n14689# x3.EI VDD.t589 VDD.t66 sky130_fd_pr__pfet_01v8_hvt ad=0.0735 pd=0.77 as=0.109 ps=1.36 w=0.42 l=0.15
X63 a_5967_n15647# x3.EI VDD.t588 VDD.t587 sky130_fd_pr__pfet_01v8_hvt ad=0.0567 pd=0.69 as=0.118 ps=1.4 w=0.42 l=0.15
X64 A3.t126 x43.Y VDD.t747 VDD.t746 sky130_fd_pr__pfet_01v8_hvt ad=0.135 pd=1.27 as=0.26 ps=2.52 w=1 l=0.15
X65 A3.t125 x43.Y VDD.t745 VDD.t744 sky130_fd_pr__pfet_01v8_hvt ad=0.135 pd=1.27 as=0.135 ps=1.27 w=1 l=0.15
X66 x5.A2 a_5935_n3179# VDD.t55 VDD.t54 sky130_fd_pr__pfet_01v8_hvt ad=0.27 pd=2.54 as=0.148 ps=1.34 w=1 l=0.15
X67 GND.t898 x29.Y A1.t58 GND.t897 sky130_fd_pr__nfet_01v8 ad=0.0878 pd=0.92 as=0.0878 ps=0.92 w=0.65 l=0.15
X68 A0.t122 x22.Y VDD.t208 VDD.t207 sky130_fd_pr__pfet_01v8_hvt ad=0.135 pd=1.27 as=0.135 ps=1.27 w=1 l=0.15
X69 GND.t444 I14.t0 a_5475_n1939# GND.t68 sky130_fd_pr__nfet_01v8 ad=0.0567 pd=0.69 as=0.0693 ps=0.75 w=0.42 l=0.15
X70 A0.t59 x22.Y GND.t211 GND.t210 sky130_fd_pr__nfet_01v8 ad=0.0878 pd=0.92 as=0.0878 ps=0.92 w=0.65 l=0.15
X71 a_6301_n4915# x5.x16.X a_6219_n4915# VDD.t564 sky130_fd_pr__pfet_01v8_hvt ad=0.0693 pd=0.75 as=0.109 ps=1.36 w=0.42 l=0.15
X72 GND.t209 x22.Y A0.t58 GND.t208 sky130_fd_pr__nfet_01v8 ad=0.0878 pd=0.92 as=0.0878 ps=0.92 w=0.65 l=0.15
X73 GND.t259 I4.t0 a_5593_n10687# GND.t255 sky130_fd_pr__nfet_01v8 ad=0.112 pd=1.04 as=0.0567 ps=0.69 w=0.42 l=0.15
X74 GND.t896 x29.Y A1.t57 GND.t895 sky130_fd_pr__nfet_01v8 ad=0.0878 pd=0.92 as=0.0878 ps=0.92 w=0.65 l=0.15
X75 GND.t468 EI.t1 a_5629_n7635# GND.t467 sky130_fd_pr__nfet_01v8 ad=0.132 pd=1.14 as=0.0441 ps=0.63 w=0.42 l=0.15
X76 A1.t123 x29.Y VDD.t921 VDD.t920 sky130_fd_pr__pfet_01v8_hvt ad=0.135 pd=1.27 as=0.26 ps=2.52 w=1 l=0.15
X77 a_6219_n4915# x5.x22.A GND.t399 GND.t398 sky130_fd_pr__nfet_01v8 ad=0.0567 pd=0.69 as=0.0567 ps=0.69 w=0.42 l=0.15
X78 VDD.t75 x3.x19.D a_5475_n14689# VDD.t74 sky130_fd_pr__pfet_01v8_hvt ad=0.312 pd=1.68 as=0.0588 ps=0.7 w=0.42 l=0.15
X79 A3.t60 x43.Y GND.t724 GND.t723 sky130_fd_pr__nfet_01v8 ad=0.0878 pd=0.92 as=0.0878 ps=0.92 w=0.65 l=0.15
X80 A3.t59 x43.Y GND.t722 GND.t721 sky130_fd_pr__nfet_01v8 ad=0.0878 pd=0.92 as=0.0878 ps=0.92 w=0.65 l=0.15
X81 x35.A x34.A GND.t458 GND.t457 sky130_fd_pr__nfet_01v8 ad=0.169 pd=1.82 as=0.169 ps=1.82 w=0.65 l=0.15
X82 a_5653_n1175# I10.t0 a_5557_n1175# VDD.t39 sky130_fd_pr__pfet_01v8_hvt ad=0.0441 pd=0.63 as=0.0693 ps=0.75 w=0.42 l=0.15
X83 x1.A a_6219_n4915# VDD.t52 VDD.t51 sky130_fd_pr__pfet_01v8_hvt ad=0.27 pd=2.54 as=0.148 ps=1.34 w=1 l=0.15
X84 A0.t121 x22.Y VDD.t206 VDD.t205 sky130_fd_pr__pfet_01v8_hvt ad=0.135 pd=1.27 as=0.135 ps=1.27 w=1 l=0.15
X85 GND.t397 x5.x22.A a_6395_n7385# GND.t396 sky130_fd_pr__nfet_01v8 ad=0.102 pd=0.99 as=0.0567 ps=0.69 w=0.42 l=0.15
X86 x3.x19.C I4.t1 GND.t261 GND.t260 sky130_fd_pr__nfet_01v8 ad=0.169 pd=1.82 as=0.169 ps=1.82 w=0.65 l=0.15
X87 GND.t207 x22.Y A0.t57 GND.t206 sky130_fd_pr__nfet_01v8 ad=0.0878 pd=0.92 as=0.0878 ps=0.92 w=0.65 l=0.15
X88 VDD.t204 x22.Y A0.t120 VDD.t203 sky130_fd_pr__pfet_01v8_hvt ad=0.135 pd=1.27 as=0.135 ps=1.27 w=1 l=0.15
X89 GND.t720 x43.Y A3.t58 GND.t719 sky130_fd_pr__nfet_01v8 ad=0.0878 pd=0.92 as=0.0878 ps=0.92 w=0.65 l=0.15
X90 GND.t718 x43.Y A3.t57 GND.t717 sky130_fd_pr__nfet_01v8 ad=0.0878 pd=0.92 as=0.0878 ps=0.92 w=0.65 l=0.15
X91 a_5509_n4211# EI.t2 VDD.t491 VDD.t490 sky130_fd_pr__pfet_01v8_hvt ad=0.0567 pd=0.69 as=0.118 ps=1.4 w=0.42 l=0.15
X92 A2.t14 x36.Y GND.t387 GND.t386 sky130_fd_pr__nfet_01v8 ad=0.0878 pd=0.92 as=0.0878 ps=0.92 w=0.65 l=0.15
X93 GND.t205 x22.Y A0.t56 GND.t204 sky130_fd_pr__nfet_01v8 ad=0.0878 pd=0.92 as=0.0878 ps=0.92 w=0.65 l=0.15
X94 A3.t124 x43.Y VDD.t743 VDD.t742 sky130_fd_pr__pfet_01v8_hvt ad=0.135 pd=1.27 as=0.135 ps=1.27 w=1 l=0.15
X95 A3.t123 x43.Y VDD.t741 VDD.t740 sky130_fd_pr__pfet_01v8_hvt ad=0.135 pd=1.27 as=0.135 ps=1.27 w=1 l=0.15
X96 a_5557_n1939# I15.t1 a_5475_n1939# VDD.t53 sky130_fd_pr__pfet_01v8_hvt ad=0.0693 pd=0.75 as=0.109 ps=1.36 w=0.42 l=0.15
X97 x35.A x34.A VDD.t453 VDD.t452 sky130_fd_pr__pfet_01v8_hvt ad=0.26 pd=2.52 as=0.26 ps=2.52 w=1 l=0.15
X98 A3.t56 x43.Y GND.t716 GND.t715 sky130_fd_pr__nfet_01v8 ad=0.0878 pd=0.92 as=0.169 ps=1.82 w=0.65 l=0.15
X99 VDD.t504 I1.t1 a_5475_n14437# VDD.t72 sky130_fd_pr__pfet_01v8_hvt ad=0.0777 pd=0.79 as=0.0735 ps=0.77 w=0.42 l=0.15
X100 A0.t55 x22.Y GND.t203 GND.t202 sky130_fd_pr__nfet_01v8 ad=0.0878 pd=0.92 as=0.0878 ps=0.92 w=0.65 l=0.15
X101 VDD.t202 x22.Y A0.t119 VDD.t201 sky130_fd_pr__pfet_01v8_hvt ad=0.135 pd=1.27 as=0.135 ps=1.27 w=1 l=0.15
X102 VDD.t739 x43.Y A3.t122 VDD.t738 sky130_fd_pr__pfet_01v8_hvt ad=0.135 pd=1.27 as=0.135 ps=1.27 w=1 l=0.15
X103 VDD.t737 x43.Y A3.t121 VDD.t736 sky130_fd_pr__pfet_01v8_hvt ad=0.135 pd=1.27 as=0.135 ps=1.27 w=1 l=0.15
X104 GND.t754 x3.x22.A a_6395_n15425# GND.t753 sky130_fd_pr__nfet_01v8 ad=0.102 pd=0.99 as=0.0567 ps=0.69 w=0.42 l=0.15
X105 GND.t34 x29.A x29.Y GND.t33 sky130_fd_pr__nfet_01v8 ad=0.0878 pd=0.92 as=0.0878 ps=0.92 w=0.65 l=0.15
X106 A2.t115 x36.Y VDD.t377 VDD.t376 sky130_fd_pr__pfet_01v8_hvt ad=0.135 pd=1.27 as=0.135 ps=1.27 w=1 l=0.15
X107 x5.x17.A a_5507_n3887# GND.t585 GND.t584 sky130_fd_pr__nfet_01v8 ad=0.182 pd=1.86 as=0.112 ps=1.04 w=0.65 l=0.15
X108 x5.x20.X a_5475_n7635# GND.t470 GND.t469 sky130_fd_pr__nfet_01v8 ad=0.169 pd=1.82 as=0.132 ps=1.14 w=0.65 l=0.15
X109 VDD.t200 x22.Y A0.t118 VDD.t199 sky130_fd_pr__pfet_01v8_hvt ad=0.135 pd=1.27 as=0.135 ps=1.27 w=1 l=0.15
X110 A0.t54 x22.Y GND.t201 GND.t200 sky130_fd_pr__nfet_01v8 ad=0.0878 pd=0.92 as=0.0878 ps=0.92 w=0.65 l=0.15
X111 A0.t117 x22.Y VDD.t198 VDD.t197 sky130_fd_pr__pfet_01v8_hvt ad=0.135 pd=1.27 as=0.135 ps=1.27 w=1 l=0.15
X112 A3.t120 x43.Y VDD.t735 VDD.t734 sky130_fd_pr__pfet_01v8_hvt ad=0.135 pd=1.27 as=0.26 ps=2.52 w=1 l=0.15
X113 A1.t122 x29.Y VDD.t919 VDD.t918 sky130_fd_pr__pfet_01v8_hvt ad=0.135 pd=1.27 as=0.135 ps=1.27 w=1 l=0.15
X114 GND.t199 x22.Y A0.t53 GND.t198 sky130_fd_pr__nfet_01v8 ad=0.0878 pd=0.92 as=0.0878 ps=0.92 w=0.65 l=0.15
X115 x5.x18.C I10.t1 GND.t40 GND.t39 sky130_fd_pr__nfet_01v8 ad=0.169 pd=1.82 as=0.169 ps=1.82 w=0.65 l=0.15
X116 VDD.t917 x29.Y A1.t121 VDD.t916 sky130_fd_pr__pfet_01v8_hvt ad=0.135 pd=1.27 as=0.135 ps=1.27 w=1 l=0.15
X117 VDD.t915 x29.Y A1.t120 VDD.t914 sky130_fd_pr__pfet_01v8_hvt ad=0.135 pd=1.27 as=0.135 ps=1.27 w=1 l=0.15
X118 a_5475_n14437# x3.x19.C VDD.t605 VDD.t72 sky130_fd_pr__pfet_01v8_hvt ad=0.0735 pd=0.77 as=0.109 ps=1.36 w=0.42 l=0.15
X119 x1.A a_6219_n4915# GND.t59 GND.t41 sky130_fd_pr__nfet_01v8 ad=0.176 pd=1.84 as=0.102 ps=0.99 w=0.65 l=0.15
X120 GND.t556 I4.t2 a_5475_n9979# GND.t257 sky130_fd_pr__nfet_01v8 ad=0.102 pd=0.99 as=0.0567 ps=0.69 w=0.42 l=0.15
X121 A0.t116 x22.Y VDD.t182 VDD.t181 sky130_fd_pr__pfet_01v8_hvt ad=0.135 pd=1.27 as=0.135 ps=1.27 w=1 l=0.15
X122 VDD.t440 I14.t1 a_5507_n3887# VDD.t439 sky130_fd_pr__pfet_01v8_hvt ad=0.167 pd=1.39 as=0.0567 ps=0.69 w=0.42 l=0.15
X123 GND.t487 EI.t3 a_6605_n1397# GND.t486 sky130_fd_pr__nfet_01v8 ad=0.112 pd=1.04 as=0.0567 ps=0.69 w=0.42 l=0.15
X124 A3.t55 x43.Y GND.t714 GND.t713 sky130_fd_pr__nfet_01v8 ad=0.0878 pd=0.92 as=0.0878 ps=0.92 w=0.65 l=0.15
X125 x36.Y x36.A GND.t431 GND.t430 sky130_fd_pr__nfet_01v8 ad=0.0878 pd=0.92 as=0.0878 ps=0.92 w=0.65 l=0.15
X126 A2.t2 x36.Y GND.t385 GND.t384 sky130_fd_pr__nfet_01v8 ad=0.0878 pd=0.92 as=0.0878 ps=0.92 w=0.65 l=0.15
X127 VDD.t196 x22.Y A0.t115 VDD.t195 sky130_fd_pr__pfet_01v8_hvt ad=0.135 pd=1.27 as=0.135 ps=1.27 w=1 l=0.15
X128 A2.t1 x36.Y GND.t383 GND.t382 sky130_fd_pr__nfet_01v8 ad=0.0878 pd=0.92 as=0.0878 ps=0.92 w=0.65 l=0.15
X129 a_6519_n1397# x5.EO VDD.t787 VDD.t786 sky130_fd_pr__pfet_01v8_hvt ad=0.0567 pd=0.69 as=0.118 ps=1.4 w=0.42 l=0.15
X130 A0.t52 x22.Y GND.t197 GND.t196 sky130_fd_pr__nfet_01v8 ad=0.0878 pd=0.92 as=0.0878 ps=0.92 w=0.65 l=0.15
X131 a_5593_n2957# EI.t4 a_5507_n2957# GND.t57 sky130_fd_pr__nfet_01v8 ad=0.0567 pd=0.69 as=0.118 ps=1.4 w=0.42 l=0.15
X132 GND.t429 x36.A x36.Y GND.t428 sky130_fd_pr__nfet_01v8 ad=0.0878 pd=0.92 as=0.0878 ps=0.92 w=0.65 l=0.15
X133 GND.t381 x36.Y A2.t0 GND.t380 sky130_fd_pr__nfet_01v8 ad=0.0878 pd=0.92 as=0.0878 ps=0.92 w=0.65 l=0.15
X134 GND.t379 x36.Y A2.t32 GND.t378 sky130_fd_pr__nfet_01v8 ad=0.0878 pd=0.92 as=0.0878 ps=0.92 w=0.65 l=0.15
X135 GND.t195 x22.Y A0.t51 GND.t194 sky130_fd_pr__nfet_01v8 ad=0.0878 pd=0.92 as=0.0878 ps=0.92 w=0.65 l=0.15
X136 GND.t537 x5.x15.X a_6219_n4915# GND.t398 sky130_fd_pr__nfet_01v8 ad=0.0567 pd=0.69 as=0.0693 ps=0.75 w=0.42 l=0.15
X137 VDD.t913 x29.Y A1.t119 VDD.t912 sky130_fd_pr__pfet_01v8_hvt ad=0.135 pd=1.27 as=0.135 ps=1.27 w=1 l=0.15
X138 GND.t712 x43.Y A3.t54 GND.t711 sky130_fd_pr__nfet_01v8 ad=0.0878 pd=0.92 as=0.0878 ps=0.92 w=0.65 l=0.15
X139 a_5475_n5165# x5.x16.C VDD.t5 VDD.t4 sky130_fd_pr__pfet_01v8_hvt ad=0.0588 pd=0.7 as=0.0777 ps=0.79 w=0.42 l=0.15
X140 x22.Y x22.A GND.t251 GND.t250 sky130_fd_pr__nfet_01v8 ad=0.0878 pd=0.92 as=0.0878 ps=0.92 w=0.65 l=0.15
X141 A3.t119 x43.Y VDD.t733 VDD.t732 sky130_fd_pr__pfet_01v8_hvt ad=0.135 pd=1.27 as=0.135 ps=1.27 w=1 l=0.15
X142 a_5645_n6397# I9.t0 a_5557_n6397# GND.t84 sky130_fd_pr__nfet_01v8 ad=0.0798 pd=0.8 as=0.0609 ps=0.71 w=0.42 l=0.15
X143 x29.Y x29.A VDD.t37 VDD.t36 sky130_fd_pr__pfet_01v8_hvt ad=0.135 pd=1.27 as=0.26 ps=2.52 w=1 l=0.15
X144 x36.Y x36.A VDD.t421 VDD.t420 sky130_fd_pr__pfet_01v8_hvt ad=0.135 pd=1.27 as=0.135 ps=1.27 w=1 l=0.15
X145 A2.t114 x36.Y VDD.t375 VDD.t374 sky130_fd_pr__pfet_01v8_hvt ad=0.135 pd=1.27 as=0.135 ps=1.27 w=1 l=0.15
X146 A2.t113 x36.Y VDD.t373 VDD.t372 sky130_fd_pr__pfet_01v8_hvt ad=0.135 pd=1.27 as=0.135 ps=1.27 w=1 l=0.15
X147 a_6395_n7385# x5.x21.X GND.t501 GND.t500 sky130_fd_pr__nfet_01v8 ad=0.0567 pd=0.69 as=0.0567 ps=0.69 w=0.42 l=0.15
X148 VDD.t553 I0.t0 a_5725_n9215# VDD.t552 sky130_fd_pr__pfet_01v8_hvt ad=0.148 pd=1.34 as=0.0693 ps=0.75 w=0.42 l=0.15
X149 VDD.t50 x1.A a_10858_n9865# VDD.t49 sky130_fd_pr__pfet_01v8_hvt ad=0.146 pd=1.34 as=0.0441 ps=0.63 w=0.42 l=0.15
X150 A0.t50 x22.Y GND.t193 GND.t192 sky130_fd_pr__nfet_01v8 ad=0.0878 pd=0.92 as=0.0878 ps=0.92 w=0.65 l=0.15
X151 A0.t114 x22.Y VDD.t194 VDD.t193 sky130_fd_pr__pfet_01v8_hvt ad=0.135 pd=1.27 as=0.135 ps=1.27 w=1 l=0.15
X152 VDD.t419 x36.A x36.Y VDD.t418 sky130_fd_pr__pfet_01v8_hvt ad=0.135 pd=1.27 as=0.135 ps=1.27 w=1 l=0.15
X153 VDD.t371 x36.Y A2.t112 VDD.t370 sky130_fd_pr__pfet_01v8_hvt ad=0.135 pd=1.27 as=0.135 ps=1.27 w=1 l=0.15
X154 VDD.t369 x36.Y A2.t111 VDD.t368 sky130_fd_pr__pfet_01v8_hvt ad=0.135 pd=1.27 as=0.135 ps=1.27 w=1 l=0.15
X155 GND.t191 x22.Y A0.t49 GND.t190 sky130_fd_pr__nfet_01v8 ad=0.169 pd=1.82 as=0.0878 ps=0.92 w=0.65 l=0.15
X156 VDD.t73 x3.x19.D a_5475_n14437# VDD.t72 sky130_fd_pr__pfet_01v8_hvt ad=0.312 pd=1.68 as=0.0588 ps=0.7 w=0.42 l=0.15
X157 VDD.t481 x5.x4.A a_6183_n1175# VDD.t480 sky130_fd_pr__pfet_01v8_hvt ad=0.148 pd=1.34 as=0.0693 ps=0.75 w=0.42 l=0.15
X158 GND.t377 x36.Y A2.t31 GND.t376 sky130_fd_pr__nfet_01v8 ad=0.0878 pd=0.92 as=0.0878 ps=0.92 w=0.65 l=0.15
X159 VDD.t192 x22.Y A0.t113 VDD.t191 sky130_fd_pr__pfet_01v8_hvt ad=0.135 pd=1.27 as=0.135 ps=1.27 w=1 l=0.15
X160 x3.A2 a_5935_n11219# GND.t466 GND.t465 sky130_fd_pr__nfet_01v8 ad=0.176 pd=1.84 as=0.102 ps=0.99 w=0.65 l=0.15
X161 VDD.t731 x43.Y A3.t118 VDD.t730 sky130_fd_pr__pfet_01v8_hvt ad=0.135 pd=1.27 as=0.135 ps=1.27 w=1 l=0.15
X162 x22.Y x22.A VDD.t248 VDD.t247 sky130_fd_pr__pfet_01v8_hvt ad=0.135 pd=1.27 as=0.135 ps=1.27 w=1 l=0.15
X163 VDD.t911 x29.Y A1.t118 VDD.t910 sky130_fd_pr__pfet_01v8_hvt ad=0.135 pd=1.27 as=0.135 ps=1.27 w=1 l=0.15
X164 A0.t112 x22.Y VDD.t190 VDD.t189 sky130_fd_pr__pfet_01v8_hvt ad=0.135 pd=1.27 as=0.135 ps=1.27 w=1 l=0.15
X165 A1.t117 x29.Y VDD.t909 VDD.t908 sky130_fd_pr__pfet_01v8_hvt ad=0.135 pd=1.27 as=0.135 ps=1.27 w=1 l=0.15
X166 GND.t910 x5.x14.A a_5935_n3179# GND.t909 sky130_fd_pr__nfet_01v8 ad=0.102 pd=0.99 as=0.0567 ps=0.69 w=0.42 l=0.15
X167 VDD.t367 x36.Y A2.t110 VDD.t366 sky130_fd_pr__pfet_01v8_hvt ad=0.135 pd=1.27 as=0.135 ps=1.27 w=1 l=0.15
X168 x21.A x2.X GND.t548 GND.t547 sky130_fd_pr__nfet_01v8 ad=0.169 pd=1.82 as=0.169 ps=1.82 w=0.65 l=0.15
X169 VDD.t188 x22.Y A0.t111 VDD.t187 sky130_fd_pr__pfet_01v8_hvt ad=0.26 pd=2.52 as=0.135 ps=1.27 w=1 l=0.15
X170 x5.x19.X a_5475_n6649# GND.t54 GND.t53 sky130_fd_pr__nfet_01v8 ad=0.169 pd=1.82 as=0.196 ps=1.33 w=0.65 l=0.15
X171 GND.t38 x5.x2.X a_6029_n1419# GND.t37 sky130_fd_pr__nfet_01v8 ad=0.0567 pd=0.69 as=0.109 ps=1.36 w=0.42 l=0.15
X172 GND.t375 x36.Y A2.t10 GND.t374 sky130_fd_pr__nfet_01v8 ad=0.0878 pd=0.92 as=0.0878 ps=0.92 w=0.65 l=0.15
X173 x5.x2.X a_5475_n1939# GND.t393 GND.t392 sky130_fd_pr__nfet_01v8 ad=0.176 pd=1.84 as=0.102 ps=0.99 w=0.65 l=0.15
X174 GND.t373 x36.Y A2.t9 GND.t372 sky130_fd_pr__nfet_01v8 ad=0.169 pd=1.82 as=0.0878 ps=0.92 w=0.65 l=0.15
X175 VDD.t905 x29.Y A1.t116 VDD.t904 sky130_fd_pr__pfet_01v8_hvt ad=0.135 pd=1.27 as=0.135 ps=1.27 w=1 l=0.15
X176 VDD.t907 x29.Y A1.t115 VDD.t906 sky130_fd_pr__pfet_01v8_hvt ad=0.135 pd=1.27 as=0.135 ps=1.27 w=1 l=0.15
X177 x22.Y x22.A GND.t249 GND.t248 sky130_fd_pr__nfet_01v8 ad=0.0878 pd=0.92 as=0.0878 ps=0.92 w=0.65 l=0.15
X178 x36.Y x36.A GND.t427 GND.t426 sky130_fd_pr__nfet_01v8 ad=0.0878 pd=0.92 as=0.0878 ps=0.92 w=0.65 l=0.15
X179 x29.Y x29.A VDD.t35 VDD.t34 sky130_fd_pr__pfet_01v8_hvt ad=0.135 pd=1.27 as=0.135 ps=1.27 w=1 l=0.15
X180 A1.t114 x29.Y VDD.t903 VDD.t902 sky130_fd_pr__pfet_01v8_hvt ad=0.135 pd=1.27 as=0.135 ps=1.27 w=1 l=0.15
X181 A1.t113 x29.Y VDD.t901 VDD.t900 sky130_fd_pr__pfet_01v8_hvt ad=0.135 pd=1.27 as=0.135 ps=1.27 w=1 l=0.15
X182 x21.A x2.X VDD.t561 VDD.t560 sky130_fd_pr__pfet_01v8_hvt ad=0.26 pd=2.52 as=0.26 ps=2.52 w=1 l=0.15
X183 a_6605_n9437# x3.EO a_6519_n9437# GND.t476 sky130_fd_pr__nfet_01v8 ad=0.0567 pd=0.69 as=0.118 ps=1.4 w=0.42 l=0.15
X184 GND.t189 x22.Y A0.t48 GND.t188 sky130_fd_pr__nfet_01v8 ad=0.0878 pd=0.92 as=0.0878 ps=0.92 w=0.65 l=0.15
X185 VDD.t365 x36.Y A2.t109 VDD.t364 sky130_fd_pr__pfet_01v8_hvt ad=0.135 pd=1.27 as=0.135 ps=1.27 w=1 l=0.15
X186 VDD.t363 x36.Y A2.t108 VDD.t362 sky130_fd_pr__pfet_01v8_hvt ad=0.26 pd=2.52 as=0.135 ps=1.27 w=1 l=0.15
X187 GND.t425 x36.A x36.Y GND.t424 sky130_fd_pr__nfet_01v8 ad=0.0878 pd=0.92 as=0.0878 ps=0.92 w=0.65 l=0.15
X188 GND.t371 x36.Y A2.t8 GND.t370 sky130_fd_pr__nfet_01v8 ad=0.0878 pd=0.92 as=0.0878 ps=0.92 w=0.65 l=0.15
X189 A0.t47 x22.Y GND.t187 GND.t186 sky130_fd_pr__nfet_01v8 ad=0.0878 pd=0.92 as=0.0878 ps=0.92 w=0.65 l=0.15
X190 x36.Y x36.A VDD.t417 VDD.t416 sky130_fd_pr__pfet_01v8_hvt ad=0.135 pd=1.27 as=0.135 ps=1.27 w=1 l=0.15
X191 x2.A a_6395_n7385# GND.t460 GND.t459 sky130_fd_pr__nfet_01v8 ad=0.176 pd=1.84 as=0.102 ps=0.99 w=0.65 l=0.15
X192 x22.Y x22.A VDD.t246 VDD.t245 sky130_fd_pr__pfet_01v8_hvt ad=0.135 pd=1.27 as=0.135 ps=1.27 w=1 l=0.15
X193 a_5475_n9215# I1.t2 GND.t743 GND.t71 sky130_fd_pr__nfet_01v8 ad=0.0567 pd=0.69 as=0.0567 ps=0.69 w=0.42 l=0.15
X194 a_5557_n13205# I2.t1 a_5475_n13205# GND.t564 sky130_fd_pr__nfet_01v8 ad=0.0609 pd=0.71 as=0.109 ps=1.36 w=0.42 l=0.15
X195 x36.Y x36.A GND.t423 GND.t422 sky130_fd_pr__nfet_01v8 ad=0.0878 pd=0.92 as=0.0878 ps=0.92 w=0.65 l=0.15
X196 GND.t32 x29.A x29.Y GND.t31 sky130_fd_pr__nfet_01v8 ad=0.0878 pd=0.92 as=0.0878 ps=0.92 w=0.65 l=0.15
X197 VDD.t186 x22.Y A0.t110 VDD.t185 sky130_fd_pr__pfet_01v8_hvt ad=0.135 pd=1.27 as=0.135 ps=1.27 w=1 l=0.15
X198 A0.t109 x22.Y VDD.t184 VDD.t183 sky130_fd_pr__pfet_01v8_hvt ad=0.135 pd=1.27 as=0.135 ps=1.27 w=1 l=0.15
X199 VDD.t415 x36.A x36.Y VDD.t414 sky130_fd_pr__pfet_01v8_hvt ad=0.135 pd=1.27 as=0.135 ps=1.27 w=1 l=0.15
X200 VDD.t361 x36.Y A2.t107 VDD.t360 sky130_fd_pr__pfet_01v8_hvt ad=0.135 pd=1.27 as=0.135 ps=1.27 w=1 l=0.15
X201 A3.t53 x43.Y GND.t710 GND.t709 sky130_fd_pr__nfet_01v8 ad=0.0878 pd=0.92 as=0.0878 ps=0.92 w=0.65 l=0.15
X202 A1.t56 x29.Y GND.t894 GND.t893 sky130_fd_pr__nfet_01v8 ad=0.0878 pd=0.92 as=0.169 ps=1.82 w=0.65 l=0.15
X203 GND.t536 x43.A x43.Y GND.t535 sky130_fd_pr__nfet_01v8 ad=0.0878 pd=0.92 as=0.0878 ps=0.92 w=0.65 l=0.15
X204 x36.Y x36.A VDD.t413 VDD.t412 sky130_fd_pr__pfet_01v8_hvt ad=0.135 pd=1.27 as=0.135 ps=1.27 w=1 l=0.15
X205 VDD.t604 x3.x19.C a_5475_n13455# VDD.t508 sky130_fd_pr__pfet_01v8_hvt ad=0.0777 pd=0.79 as=0.0735 ps=0.77 w=0.42 l=0.15
X206 x43.Y x43.A GND.t534 GND.t533 sky130_fd_pr__nfet_01v8 ad=0.0878 pd=0.92 as=0.0878 ps=0.92 w=0.65 l=0.15
X207 a_5653_n1939# I14.t2 a_5557_n1939# VDD.t85 sky130_fd_pr__pfet_01v8_hvt ad=0.0441 pd=0.63 as=0.0693 ps=0.75 w=0.42 l=0.15
X208 GND.t185 x22.Y A0.t46 GND.t184 sky130_fd_pr__nfet_01v8 ad=0.169 pd=1.82 as=0.0878 ps=0.92 w=0.65 l=0.15
X209 A1.t112 x29.Y VDD.t899 VDD.t898 sky130_fd_pr__pfet_01v8_hvt ad=0.135 pd=1.27 as=0.135 ps=1.27 w=1 l=0.15
X210 A3.t117 x43.Y VDD.t729 VDD.t728 sky130_fd_pr__pfet_01v8_hvt ad=0.135 pd=1.27 as=0.135 ps=1.27 w=1 l=0.15
X211 a_5475_n9979# I7.t0 GND.t586 GND.t257 sky130_fd_pr__nfet_01v8 ad=0.0693 pd=0.75 as=0.109 ps=1.36 w=0.42 l=0.15
X212 GND.t575 x3.EI a_5751_n13205# GND.t564 sky130_fd_pr__nfet_01v8 ad=0.196 pd=1.33 as=0.0693 ps=0.75 w=0.42 l=0.15
X213 VDD.t548 x43.A x43.Y VDD.t547 sky130_fd_pr__pfet_01v8_hvt ad=0.135 pd=1.27 as=0.135 ps=1.27 w=1 l=0.15
X214 a_5935_n3179# x5.x11.X GND.t472 GND.t471 sky130_fd_pr__nfet_01v8 ad=0.0567 pd=0.69 as=0.0567 ps=0.69 w=0.42 l=0.15
X215 a_5507_n11927# x3.EI VDD.t586 VDD.t459 sky130_fd_pr__pfet_01v8_hvt ad=0.0567 pd=0.69 as=0.118 ps=1.4 w=0.42 l=0.15
X216 x43.Y x43.A VDD.t546 VDD.t545 sky130_fd_pr__pfet_01v8_hvt ad=0.135 pd=1.27 as=0.135 ps=1.27 w=1 l=0.15
X217 VDD.t180 x22.Y A0.t108 VDD.t179 sky130_fd_pr__pfet_01v8_hvt ad=0.26 pd=2.52 as=0.135 ps=1.27 w=1 l=0.15
X218 A1.t55 x29.Y GND.t892 GND.t891 sky130_fd_pr__nfet_01v8 ad=0.0878 pd=0.92 as=0.0878 ps=0.92 w=0.65 l=0.15
X219 A0.t45 x22.Y GND.t183 GND.t182 sky130_fd_pr__nfet_01v8 ad=0.0878 pd=0.92 as=0.169 ps=1.82 w=0.65 l=0.15
X220 GND.t30 x29.A x29.Y GND.t29 sky130_fd_pr__nfet_01v8 ad=0.0878 pd=0.92 as=0.0878 ps=0.92 w=0.65 l=0.15
X221 GND.t421 x36.A x36.Y GND.t420 sky130_fd_pr__nfet_01v8 ad=0.0878 pd=0.92 as=0.0878 ps=0.92 w=0.65 l=0.15
X222 a_5475_n13455# I3.t2 VDD.t509 VDD.t508 sky130_fd_pr__pfet_01v8_hvt ad=0.0735 pd=0.77 as=0.109 ps=1.36 w=0.42 l=0.15
X223 A0.t44 x22.Y GND.t181 GND.t180 sky130_fd_pr__nfet_01v8 ad=0.0878 pd=0.92 as=0.169 ps=1.82 w=0.65 l=0.15
X224 x5.x14.A a_5507_n2647# GND.t595 GND.t594 sky130_fd_pr__nfet_01v8 ad=0.182 pd=1.86 as=0.112 ps=1.04 w=0.65 l=0.15
X225 a_5557_n9215# I3.t3 a_5475_n9215# VDD.t510 sky130_fd_pr__pfet_01v8_hvt ad=0.0693 pd=0.75 as=0.109 ps=1.36 w=0.42 l=0.15
X226 GND.t179 x22.Y A0.t43 GND.t178 sky130_fd_pr__nfet_01v8 ad=0.0878 pd=0.92 as=0.0878 ps=0.92 w=0.65 l=0.15
X227 VDD.t82 x5.x19.C a_5475_n5415# VDD.t2 sky130_fd_pr__pfet_01v8_hvt ad=0.0777 pd=0.79 as=0.0735 ps=0.77 w=0.42 l=0.15
X228 a_5751_n14689# x3.x19.C a_5645_n14689# GND.t75 sky130_fd_pr__nfet_01v8 ad=0.0693 pd=0.75 as=0.0798 ps=0.8 w=0.42 l=0.15
X229 A0.t107 x22.Y VDD.t178 VDD.t177 sky130_fd_pr__pfet_01v8_hvt ad=0.135 pd=1.27 as=0.26 ps=2.52 w=1 l=0.15
X230 GND.t706 x43.Y A3.t52 GND.t705 sky130_fd_pr__nfet_01v8 ad=0.0878 pd=0.92 as=0.0878 ps=0.92 w=0.65 l=0.15
X231 GND.t708 x43.Y A3.t51 GND.t707 sky130_fd_pr__nfet_01v8 ad=0.0878 pd=0.92 as=0.0878 ps=0.92 w=0.65 l=0.15
X232 GND.t704 x43.Y A3.t50 GND.t703 sky130_fd_pr__nfet_01v8 ad=0.0878 pd=0.92 as=0.0878 ps=0.92 w=0.65 l=0.15
X233 VDD.t411 x36.A x36.Y VDD.t410 sky130_fd_pr__pfet_01v8_hvt ad=0.135 pd=1.27 as=0.135 ps=1.27 w=1 l=0.15
X234 x3.x16.C I5.t0 GND.t435 GND.t434 sky130_fd_pr__nfet_01v8 ad=0.169 pd=1.82 as=0.169 ps=1.82 w=0.65 l=0.15
X235 x3.x16.X a_5475_n13455# GND.t912 GND.t911 sky130_fd_pr__nfet_01v8 ad=0.169 pd=1.82 as=0.196 ps=1.33 w=0.65 l=0.15
X236 A0.t106 x22.Y VDD.t176 VDD.t175 sky130_fd_pr__pfet_01v8_hvt ad=0.135 pd=1.27 as=0.26 ps=2.52 w=1 l=0.15
X237 x5.x14.A a_5507_n2647# VDD.t613 VDD.t612 sky130_fd_pr__pfet_01v8_hvt ad=0.475 pd=2.95 as=0.167 ps=1.39 w=1 l=0.15
X238 GND.t177 x22.Y A0.t42 GND.t176 sky130_fd_pr__nfet_01v8 ad=0.0878 pd=0.92 as=0.0878 ps=0.92 w=0.65 l=0.15
X239 VDD.t174 x22.Y A0.t105 VDD.t173 sky130_fd_pr__pfet_01v8_hvt ad=0.135 pd=1.27 as=0.135 ps=1.27 w=1 l=0.15
X240 A3.t49 x43.Y GND.t702 GND.t701 sky130_fd_pr__nfet_01v8 ad=0.0878 pd=0.92 as=0.169 ps=1.82 w=0.65 l=0.15
X241 VDD.t725 x43.Y A3.t116 VDD.t724 sky130_fd_pr__pfet_01v8_hvt ad=0.135 pd=1.27 as=0.135 ps=1.27 w=1 l=0.15
X242 VDD.t585 x3.EI a_5475_n13455# VDD.t508 sky130_fd_pr__pfet_01v8_hvt ad=0.312 pd=1.68 as=0.0588 ps=0.7 w=0.42 l=0.15
X243 x3.A1 a_6219_n12955# GND.t744 GND.t73 sky130_fd_pr__nfet_01v8 ad=0.176 pd=1.84 as=0.102 ps=0.99 w=0.65 l=0.15
X244 VDD.t727 x43.Y A3.t115 VDD.t726 sky130_fd_pr__pfet_01v8_hvt ad=0.135 pd=1.27 as=0.135 ps=1.27 w=1 l=0.15
X245 VDD.t723 x43.Y A3.t114 VDD.t722 sky130_fd_pr__pfet_01v8_hvt ad=0.135 pd=1.27 as=0.135 ps=1.27 w=1 l=0.15
X246 GND.t700 x43.Y A3.t48 GND.t699 sky130_fd_pr__nfet_01v8 ad=0.0878 pd=0.92 as=0.0878 ps=0.92 w=0.65 l=0.15
X247 GND.t698 x43.Y A3.t47 GND.t697 sky130_fd_pr__nfet_01v8 ad=0.0878 pd=0.92 as=0.0878 ps=0.92 w=0.65 l=0.15
X248 VDD.t1 x3.x21.B a_5967_n15647# VDD.t0 sky130_fd_pr__pfet_01v8_hvt ad=0.167 pd=1.39 as=0.0567 ps=0.69 w=0.42 l=0.15
X249 x43.Y x43.A GND.t532 GND.t531 sky130_fd_pr__nfet_01v8 ad=0.0878 pd=0.92 as=0.169 ps=1.82 w=0.65 l=0.15
X250 a_5475_n15675# x3.x19.D VDD.t71 VDD.t70 sky130_fd_pr__pfet_01v8_hvt ad=0.0662 pd=0.735 as=0.0567 ps=0.69 w=0.42 l=0.15
X251 x22.Y x22.A GND.t247 GND.t246 sky130_fd_pr__nfet_01v8 ad=0.0878 pd=0.92 as=0.0878 ps=0.92 w=0.65 l=0.15
X252 GND.t581 EI.t5 a_5751_n5165# GND.t2 sky130_fd_pr__nfet_01v8 ad=0.196 pd=1.33 as=0.0693 ps=0.75 w=0.42 l=0.15
X253 VDD.t172 x22.Y A0.t104 VDD.t171 sky130_fd_pr__pfet_01v8_hvt ad=0.135 pd=1.27 as=0.135 ps=1.27 w=1 l=0.15
X254 x29.A x28.A GND.t762 GND.t761 sky130_fd_pr__nfet_01v8 ad=0.0878 pd=0.92 as=0.169 ps=1.82 w=0.65 l=0.15
X255 GND.t530 x43.A x43.Y GND.t529 sky130_fd_pr__nfet_01v8 ad=0.0878 pd=0.92 as=0.0878 ps=0.92 w=0.65 l=0.15
X256 A3.t113 x43.Y VDD.t721 VDD.t720 sky130_fd_pr__pfet_01v8_hvt ad=0.135 pd=1.27 as=0.26 ps=2.52 w=1 l=0.15
X257 GND.t175 x22.Y A0.t41 GND.t174 sky130_fd_pr__nfet_01v8 ad=0.0878 pd=0.92 as=0.0878 ps=0.92 w=0.65 l=0.15
X258 VDD.t719 x43.Y A3.t112 VDD.t718 sky130_fd_pr__pfet_01v8_hvt ad=0.135 pd=1.27 as=0.135 ps=1.27 w=1 l=0.15
X259 VDD.t717 x43.Y A3.t111 VDD.t716 sky130_fd_pr__pfet_01v8_hvt ad=0.135 pd=1.27 as=0.135 ps=1.27 w=1 l=0.15
X260 a_5967_n7607# EI.t6 VDD.t391 VDD.t390 sky130_fd_pr__pfet_01v8_hvt ad=0.0567 pd=0.69 as=0.118 ps=1.4 w=0.42 l=0.15
X261 x43.Y x43.A VDD.t544 VDD.t543 sky130_fd_pr__pfet_01v8_hvt ad=0.135 pd=1.27 as=0.26 ps=2.52 w=1 l=0.15
X262 A0.t40 x22.Y GND.t173 GND.t172 sky130_fd_pr__nfet_01v8 ad=0.0878 pd=0.92 as=0.0878 ps=0.92 w=0.65 l=0.15
X263 VDD.t897 x29.Y A1.t111 VDD.t896 sky130_fd_pr__pfet_01v8_hvt ad=0.135 pd=1.27 as=0.135 ps=1.27 w=1 l=0.15
X264 a_5475_n1939# I13.t0 GND.t473 GND.t68 sky130_fd_pr__nfet_01v8 ad=0.0567 pd=0.69 as=0.0567 ps=0.69 w=0.42 l=0.15