* NGSPICE file created from DS_flat.ext - technology: sky130A

.subckt DS_flat GND VREFP VREFN SIG VMID OUT CLK VDD
X0 VDD.t450 a_156330_n13996.t49 a_153429_n11365.t26 VDD.t437 sky130_fd_pr__pfet_01v8 ad=0.725 pd=5.29 as=0.725 ps=5.29 w=5 l=0.5
X1 VDD.t159 a_216625_n11375.t32 1Bit_Clk_ADC_0.x6.B VDD.t158 sky130_fd_pr__pfet_01v8 ad=0.725 pd=5.29 as=0.725 ps=5.29 w=5 l=0.5
X2 a_219526_n14006.t41 a_219526_n14006.t40 VDD.t523 VDD.t46 sky130_fd_pr__pfet_01v8 ad=0.725 pd=5.29 as=0.725 ps=5.29 w=5 l=0.5
X3 1Bit_Clk_ADC_0.sky130_fd_sc_hd__nand2_4_0.Y 1Bit_Clk_ADC_0.x14.Y.t3 a_232253_n27658# GND.t148 sky130_fd_pr__nfet_01v8 ad=0.08775 pd=0.92 as=0.08775 ps=0.92 w=0.65 l=0.15
X4 1Bit_Clk_ADC_0.x3.B.t7 1Bit_Clk_ADC_0.x3.Y a_230965_n27658# GND.t318 sky130_fd_pr__nfet_01v8 ad=0.08775 pd=0.92 as=0.08775 ps=0.92 w=0.65 l=0.15
X5 a_216435_n47946.t1 OUT.t12 GND.t349 GND.t348 sky130_fd_pr__nfet_01v8 ad=0.825 pd=5.33 as=1.55 ps=10.62 w=5 l=0.15
X6 a_155026_n27776.t9 GND.t380 GND.t379 sky130_fd_pr__res_xhigh_po_5p73 l=69.16
X7 VREFP.t55 a_216435_n47946.t6 1Bit_DAC_0.OUT.t52 VDD.t467 sky130_fd_pr__pfet_01v8 ad=0.825 pd=5.33 as=0.825 ps=5.33 w=5 l=0.15
X8 a_156330_n13996.t45 a_156330_n13996.t44 VDD.t449 VDD.t402 sky130_fd_pr__pfet_01v8 ad=0.725 pd=5.29 as=1.45 ps=10.58 w=5 l=0.5
X9 a_219318_n20038.t24 C2S2_Amp_F_I_0.OUT a_219526_n14006.t42 GND.t238 sky130_fd_pr__nfet_01v8 ad=0.725 pd=5.29 as=0.725 ps=5.29 w=5 l=0.5
X10 a_188130_n13996.t45 a_188130_n13996.t44 VDD.t178 VDD.t81 sky130_fd_pr__pfet_01v8 ad=0.725 pd=5.29 as=0.725 ps=5.29 w=5 l=0.5
X11 GND.t396 1Bit_Clk_ADC_0.x6.B 1Bit_Clk_ADC_0.x5.A GND.t395 sky130_fd_pr__nfet_01v8 ad=0.08775 pd=0.92 as=0.08775 ps=0.92 w=0.65 l=0.15
X12 1Bit_Clk_ADC_0.x11.A 1Bit_Clk_ADC_0.x3.B.t12 VDD.t133 VDD.t132 sky130_fd_pr__pfet_01v8_hvt ad=0.135 pd=1.27 as=0.26 ps=2.52 w=1 l=0.15
X13 a_231797_n27343# 1Bit_Clk_ADC_0.x14.Y.t4 GND.t147 GND.t146 sky130_fd_pr__nfet_01v8 ad=0.08775 pd=0.92 as=0.08775 ps=0.92 w=0.65 l=0.15
X14 a_230137_n27658# CLK.t0 1Bit_Clk_ADC_0.x4.B GND.t346 sky130_fd_pr__nfet_01v8 ad=0.08775 pd=0.92 as=0.08775 ps=0.92 w=0.65 l=0.15
X15 a_232253_n27658# 1Bit_Clk_ADC_0.x14.Y.t5 1Bit_Clk_ADC_0.sky130_fd_sc_hd__nand2_4_0.Y GND.t145 sky130_fd_pr__nfet_01v8 ad=0.169 pd=1.82 as=0.08775 ps=0.92 w=0.65 l=0.15
X16 VREFP.t54 a_216435_n47946.t7 1Bit_DAC_0.OUT.t39 VDD.t33 sky130_fd_pr__pfet_01v8 ad=0.825 pd=5.33 as=0.825 ps=5.33 w=5 l=0.15
X17 VDD.t32 a_188937_n26928.t19 a_188937_n26928.t20 VDD.t31 sky130_fd_pr__pfet_01v8 ad=0.725 pd=5.29 as=0.725 ps=5.29 w=5 l=1
X18 C2S2_Amp_F_I_1.constant_gm_fingers_0.Vout.t7 a_157137_n26928.t22 VDD.t74 VDD.t73 sky130_fd_pr__pfet_01v8 ad=0.725 pd=5.29 as=1.45 ps=10.58 w=5 l=1
X19 1Bit_Clk_ADC_0.x6.B a_214193_n11375.t6 sky130_fd_pr__cap_mim_m3_1 l=16 w=16
X20 GND.t15 1Bit_Clk_ADC_0.x3.B.t13 1Bit_Clk_ADC_0.x11.A GND.t14 sky130_fd_pr__nfet_01v8 ad=0.169 pd=1.82 as=0.08775 ps=0.92 w=0.65 l=0.15
X21 VDD.t376 a_216625_n11375.t33 1Bit_Clk_ADC_0.x6.B VDD.t375 sky130_fd_pr__pfet_01v8 ad=0.725 pd=5.29 as=0.725 ps=5.29 w=5 l=0.5
X22 GND.t254 C2S2_Amp_F_I_1.constant_gm_fingers_0.Vout.t16 a_156122_n20028.t23 GND.t253 sky130_fd_pr__nfet_01v8 ad=0.725 pd=5.29 as=0.725 ps=5.29 w=5 l=1
X23 1Bit_Clk_ADC_0.x6.B a_216625_n11375.t34 VDD.t182 VDD.t181 sky130_fd_pr__pfet_01v8 ad=0.725 pd=5.29 as=0.725 ps=5.29 w=5 l=0.5
X24 1Bit_Clk_ADC_0.x9.A 1Bit_Clk_ADC_0.x11.A a_231797_n27343# GND.t374 sky130_fd_pr__nfet_01v8 ad=0.08775 pd=0.92 as=0.08775 ps=0.92 w=0.65 l=0.15
X25 GND.t182 C2S2_Amp_F_I_0.constant_gm_fingers_0.Vout.t16 a_187922_n20028.t21 GND.t181 sky130_fd_pr__nfet_01v8 ad=0.725 pd=5.29 as=0.725 ps=5.29 w=5 l=1
X26 VREFP.t28 OUT.t13 1Bit_DAC_0.OUT.t5 GND.t350 sky130_fd_pr__nfet_01v8 ad=0.825 pd=5.33 as=0.825 ps=5.33 w=5 l=0.15
X27 1Bit_Clk_ADC_0.x6.B a_216625_n11375.t35 VDD.t319 VDD.t318 sky130_fd_pr__pfet_01v8 ad=0.725 pd=5.29 as=0.725 ps=5.29 w=5 l=0.5
X28 C2S2_Amp_F_I_0.constant_gm_fingers_0.Vout.t7 C2S2_Amp_F_I_0.constant_gm_fingers_0.Vout.t6 GND.t356 GND.t355 sky130_fd_pr__nfet_01v8 ad=0.18125 pd=1.54 as=0.18125 ps=1.54 w=1.25 l=1
X29 GND.t256 C2S2_Amp_F_I_1.constant_gm_fingers_0.Vout.t17 C2S2_Amp_F_I_1.OUT.t24 GND.t255 sky130_fd_pr__nfet_01v8 ad=0.725 pd=5.29 as=0.725 ps=5.29 w=5 l=1
X30 VDD.t362 a_220333_n26938.t15 a_220333_n26938.t16 VDD.t212 sky130_fd_pr__pfet_01v8 ad=0.725 pd=5.29 as=0.725 ps=5.29 w=5 l=1
X31 GND.t172 C2S2_Amp_F_I_0.constant_gm_fingers_0.Vout.t17 a_187922_n20028.t20 GND.t171 sky130_fd_pr__nfet_01v8 ad=0.725 pd=5.29 as=0.725 ps=5.29 w=5 l=1
X32 1Bit_Clk_ADC_0.x3.A CLK.t1 VDD.t173 VDD.t172 sky130_fd_pr__pfet_01v8_hvt ad=0.135 pd=1.27 as=0.135 ps=1.27 w=1 l=0.15
X33 GND.t328 C2S2_Amp_F_I_1.constant_gm_fingers_0.Vout.t18 C2S2_Amp_F_I_1.OUT.t23 GND.t327 sky130_fd_pr__nfet_01v8 ad=0.725 pd=5.29 as=0.725 ps=5.29 w=5 l=1
X34 a_218222_n27786.t8 GND.t378 GND.t377 sky130_fd_pr__res_xhigh_po_5p73 l=69.16
X35 a_157137_n26928.t21 C2S2_Amp_F_I_1.constant_gm_fingers_0.Vout.t19 a_155026_n27776.t8 GND.t329 sky130_fd_pr__nfet_01v8 ad=0.725 pd=5.29 as=0.725 ps=5.29 w=5 l=1
X36 a_216435_n47946.t5 OUT.t14 VDD.t554 VDD.t553 sky130_fd_pr__pfet_01v8 ad=0.825 pd=5.33 as=0.825 ps=5.33 w=5 l=0.15
X37 GND.t178 C2S2_Amp_F_I_0.constant_gm_fingers_0.Vout.t18 C2S2_Amp_F_I_0.OUT GND.t177 sky130_fd_pr__nfet_01v8 ad=0.725 pd=5.29 as=0.725 ps=5.29 w=5 l=1
X38 a_216625_n11375.t5 a_219526_n14006.t49 VDD.t47 VDD.t46 sky130_fd_pr__pfet_01v8 ad=0.725 pd=5.29 as=0.725 ps=5.29 w=5 l=0.5
X39 a_156330_n13996.t43 a_156330_n13996.t42 VDD.t448 VDD.t400 sky130_fd_pr__pfet_01v8 ad=1.45 pd=10.58 as=0.725 ps=5.29 w=5 l=0.5
X40 1Bit_Clk_ADC_0.x3.Y 1Bit_Clk_ADC_0.x3.B.t14 VDD.t66 VDD.t65 sky130_fd_pr__pfet_01v8_hvt ad=0.135 pd=1.27 as=0.135 ps=1.27 w=1 l=0.15
X41 1Bit_Clk_ADC_0.C2S2_Fingers_Amplifier_0.constant_gm_fingers_0.Vout.t7 1Bit_Clk_ADC_0.C2S2_Fingers_Amplifier_0.constant_gm_fingers_0.Vout.t6 GND.t402 GND.t401 sky130_fd_pr__nfet_01v8 ad=0.18125 pd=1.54 as=0.3625 ps=3.08 w=1.25 l=1
X42 1Bit_Clk_ADC_0.x6.B a_216625_n11375.t36 VDD.t180 VDD.t179 sky130_fd_pr__pfet_01v8 ad=0.725 pd=5.29 as=1.45 ps=10.58 w=5 l=0.5
X43 a_219526_n14006.t48 C2S2_Amp_F_I_0.OUT a_219318_n20038.t23 GND.t44 sky130_fd_pr__nfet_01v8 ad=0.725 pd=5.29 as=1.45 ps=10.58 w=5 l=0.5
X44 C2S2_Amp_F_I_1.OUT.t64 a_153429_n11365.t32 VDD.t668 VDD.t667 sky130_fd_pr__pfet_01v8 ad=0.725 pd=5.29 as=0.725 ps=5.29 w=5 l=0.5
X45 1Bit_DAC_0.OUT.t30 a_216435_n47946.t8 VREFP.t53 VDD.t354 sky130_fd_pr__pfet_01v8 ad=0.825 pd=5.33 as=0.825 ps=5.33 w=5 l=0.15
X46 OUT.t3 1Bit_Clk_ADC_0.x9.B VDD.t239 VDD.t238 sky130_fd_pr__pfet_01v8_hvt ad=0.135 pd=1.27 as=0.26 ps=2.52 w=1 l=0.15
X47 VDD.t162 a_220333_n26938.t22 1Bit_Clk_ADC_0.C2S2_Fingers_Amplifier_0.constant_gm_fingers_0.Vout.t15 VDD.t161 sky130_fd_pr__pfet_01v8 ad=1.45 pd=10.58 as=0.725 ps=5.29 w=5 l=1
X48 1Bit_DAC_Inv_0.OUT.t38 OUT.t15 VREFP.t14 VDD.t716 sky130_fd_pr__pfet_01v8 ad=1.55 pd=10.62 as=0.825 ps=5.33 w=5 l=0.15
X49 a_153429_n11365.t25 a_156330_n13996.t50 VDD.t447 VDD.t433 sky130_fd_pr__pfet_01v8 ad=0.725 pd=5.29 as=0.725 ps=5.29 w=5 l=0.5
X50 VDD.t282 a_219526_n14006.t38 a_219526_n14006.t39 VDD.t48 sky130_fd_pr__pfet_01v8 ad=0.725 pd=5.29 as=0.725 ps=5.29 w=5 l=0.5
X51 GND.t220 1Bit_Clk_ADC_0.C2S2_Fingers_Amplifier_0.constant_gm_fingers_0.Vout.t16 1Bit_Clk_ADC_0.x6.B GND.t219 sky130_fd_pr__nfet_01v8 ad=0.725 pd=5.29 as=0.725 ps=5.29 w=5 l=1
X52 GND.t222 1Bit_Clk_ADC_0.C2S2_Fingers_Amplifier_0.constant_gm_fingers_0.Vout.t17 a_219318_n20038.t13 GND.t221 sky130_fd_pr__nfet_01v8 ad=0.725 pd=5.29 as=0.725 ps=5.29 w=5 l=1
X53 VREFN.t46 a_181475_n46496.t6 1Bit_DAC_Inv_0.OUT.t43 VDD.t386 sky130_fd_pr__pfet_01v8 ad=0.825 pd=5.33 as=0.825 ps=5.33 w=5 l=0.15
X54 VDD.t196 a_188130_n13996.t49 a_185229_n11365.t23 VDD.t195 sky130_fd_pr__pfet_01v8 ad=0.725 pd=5.29 as=0.725 ps=5.29 w=5 l=0.5
X55 GND.t36 C2S2_Amp_F_I_0.constant_gm_fingers_0.Vout.t19 a_187922_n20028.t19 GND.t35 sky130_fd_pr__nfet_01v8 ad=0.725 pd=5.29 as=0.725 ps=5.29 w=5 l=1
X56 1Bit_DAC_0.OUT.t31 a_216435_n47946.t9 VREFP.t52 VDD.t372 sky130_fd_pr__pfet_01v8 ad=0.825 pd=5.33 as=0.825 ps=5.33 w=5 l=0.15
X57 VDD.t446 a_156330_n13996.t51 a_153429_n11365.t24 VDD.t431 sky130_fd_pr__pfet_01v8 ad=0.725 pd=5.29 as=0.725 ps=5.29 w=5 l=0.5
X58 a_156330_n13996.t41 a_156330_n13996.t40 VDD.t445 VDD.t398 sky130_fd_pr__pfet_01v8 ad=0.725 pd=5.29 as=0.725 ps=5.29 w=5 l=0.5
X59 1Bit_Clk_ADC_0.x3.B.t3 1Bit_Clk_ADC_0.x4.B VDD.t497 VDD.t496 sky130_fd_pr__pfet_01v8_hvt ad=0.135 pd=1.27 as=0.26 ps=2.52 w=1 l=0.15
X60 VDD.t377 a_188130_n13996.t42 a_188130_n13996.t43 VDD.t83 sky130_fd_pr__pfet_01v8 ad=0.725 pd=5.29 as=0.725 ps=5.29 w=5 l=0.5
X61 VDD.t465 a_188130_n13996.t40 a_188130_n13996.t41 VDD.t464 sky130_fd_pr__pfet_01v8 ad=0.725 pd=5.29 as=0.725 ps=5.29 w=5 l=0.5
X62 GND.t411 1Bit_Clk_ADC_0.C2S2_Fingers_Amplifier_0.constant_gm_fingers_0.Vout.t18 1Bit_Clk_ADC_0.x6.B GND.t410 sky130_fd_pr__nfet_01v8 ad=0.725 pd=5.29 as=0.725 ps=5.29 w=5 l=1
X63 C2S2_Amp_F_I_0.VN.t1 a_208326_n43908# GND.t69 sky130_fd_pr__res_xhigh_po_5p73 l=57.3
X64 1Bit_Clk_ADC_0.x5.A 1Bit_Clk_ADC_0.x6.B VDD.t696 VDD.t695 sky130_fd_pr__pfet_01v8_hvt ad=0.135 pd=1.27 as=0.26 ps=2.52 w=1 l=0.15
X65 a_185229_n11365.t22 a_188130_n13996.t50 VDD.t197 VDD.t89 sky130_fd_pr__pfet_01v8 ad=0.725 pd=5.29 as=0.725 ps=5.29 w=5 l=0.5
X66 a_185229_n11365.t0 VMID.t0 a_187922_n20028.t3 GND.t40 sky130_fd_pr__nfet_01v8 ad=0.725 pd=5.29 as=0.725 ps=5.29 w=5 l=0.5
X67 1Bit_DAC_0.OUT.t45 a_216435_n47946.t10 VREFP.t51 VDD.t209 sky130_fd_pr__pfet_01v8 ad=0.825 pd=5.33 as=0.825 ps=5.33 w=5 l=0.15
X68 a_156122_n20028.t4 VMID.t1 a_153429_n11365.t3 GND.t41 sky130_fd_pr__nfet_01v8 ad=0.725 pd=5.29 as=0.725 ps=5.29 w=5 l=0.5
X69 a_172166_n12474# C2S2_Amp_F_I_1.OUT.t0 GND.t20 sky130_fd_pr__res_xhigh_po_5p73 l=57.3
X70 a_188130_n13996.t0 C2S2_Amp_F_I_0.VN.t2 a_187922_n20028.t0 GND.t5 sky130_fd_pr__nfet_01v8 ad=0.725 pd=5.29 as=0.725 ps=5.29 w=5 l=0.5
X71 VDD.t321 1Bit_Clk_ADC_0.x3.B.t15 1Bit_Clk_ADC_0.sky130_fd_sc_hd__nand2_4_0.Y VDD.t320 sky130_fd_pr__pfet_01v8_hvt ad=0.135 pd=1.27 as=0.135 ps=1.27 w=1 l=0.15
X72 1Bit_Clk_ADC_0.x6.B a_216625_n11375.t37 VDD.t9 VDD.t8 sky130_fd_pr__pfet_01v8 ad=0.725 pd=5.29 as=0.725 ps=5.29 w=5 l=0.5
X73 VDD.t495 1Bit_Clk_ADC_0.x4.B 1Bit_Clk_ADC_0.x3.B.t2 VDD.t494 sky130_fd_pr__pfet_01v8_hvt ad=0.135 pd=1.27 as=0.135 ps=1.27 w=1 l=0.15
X74 a_157137_n26928.t4 a_157137_n26928.t3 C2S2_Amp_F_I_1.constant_gm_fingers_0.Vout.t1 GND.t32 sky130_fd_pr__nfet_01v8 ad=0.725 pd=5.58 as=0.3625 ps=2.79 w=2.5 l=0.5
X75 VDD.t694 1Bit_Clk_ADC_0.x6.B 1Bit_Clk_ADC_0.x5.A VDD.t693 sky130_fd_pr__pfet_01v8_hvt ad=0.26 pd=2.52 as=0.135 ps=1.27 w=1 l=0.15
X76 1Bit_Clk_ADC_0.x6.B a_216625_n11375.t38 VDD.t139 VDD.t138 sky130_fd_pr__pfet_01v8 ad=0.725 pd=5.29 as=0.725 ps=5.29 w=5 l=0.5
X77 VDD.t718 OUT.t16 a_216435_n47946.t4 VDD.t717 sky130_fd_pr__pfet_01v8 ad=0.825 pd=5.33 as=0.825 ps=5.33 w=5 l=0.15
X78 VDD.t666 a_153429_n11365.t33 C2S2_Amp_F_I_1.OUT.t63 VDD.t665 sky130_fd_pr__pfet_01v8 ad=0.725 pd=5.29 as=0.725 ps=5.29 w=5 l=0.5
X79 a_214193_n11375.t0 a_216625_n11375.t0 GND.t4 sky130_fd_pr__res_xhigh_po_5p73 l=10.16
X80 a_150997_n11365.t6 a_153429_n11365.t29 GND.t310 sky130_fd_pr__res_xhigh_po_5p73 l=10.16
X81 C2S2_Amp_F_I_0.VN.t3 C2S2_Amp_F_I_0.OUT sky130_fd_pr__cap_mim_m3_1 l=15.7 w=15.7
X82 VDD.t49 a_219526_n14006.t50 a_216625_n11375.t6 VDD.t48 sky130_fd_pr__pfet_01v8 ad=0.725 pd=5.29 as=0.725 ps=5.29 w=5 l=0.5
X83 a_233081_n27658# 1Bit_Clk_ADC_0.sky130_fd_sc_hd__nand2_4_0.Y GND.t136 GND.t135 sky130_fd_pr__nfet_01v8 ad=0.08775 pd=0.92 as=0.08775 ps=0.92 w=0.65 l=0.15
X84 VREFP.t29 OUT.t17 1Bit_DAC_Inv_0.OUT.t37 VDD.t719 sky130_fd_pr__pfet_01v8 ad=0.825 pd=5.33 as=0.825 ps=5.33 w=5 l=0.15
X85 VDD.t508 a_216625_n11375.t39 1Bit_Clk_ADC_0.x6.B VDD.t507 sky130_fd_pr__pfet_01v8 ad=0.725 pd=5.29 as=0.725 ps=5.29 w=5 l=0.5
X86 GND.t394 1Bit_Clk_ADC_0.x6.B a_230137_n27658# GND.t393 sky130_fd_pr__nfet_01v8 ad=0.08775 pd=0.92 as=0.08775 ps=0.92 w=0.65 l=0.15
X87 a_156330_n13996.t39 a_156330_n13996.t38 VDD.t444 VDD.t396 sky130_fd_pr__pfet_01v8 ad=0.725 pd=5.29 as=0.725 ps=5.29 w=5 l=0.5
X88 a_188130_n13996.t39 a_188130_n13996.t38 VDD.t88 VDD.t87 sky130_fd_pr__pfet_01v8 ad=0.725 pd=5.29 as=0.725 ps=5.29 w=5 l=0.5
X89 1Bit_DAC_Inv_0.OUT.t45 a_181475_n46496.t7 VREFN.t45 VDD.t456 sky130_fd_pr__pfet_01v8 ad=0.825 pd=5.33 as=0.825 ps=5.33 w=5 l=0.15
X90 C2S2_Amp_F_I_1.OUT.t62 a_153429_n11365.t34 VDD.t664 VDD.t663 sky130_fd_pr__pfet_01v8 ad=0.725 pd=5.29 as=0.725 ps=5.29 w=5 l=0.5
X91 VDD.t274 a_185229_n11365.t32 C2S2_Amp_F_I_0.OUT VDD.t273 sky130_fd_pr__pfet_01v8 ad=0.725 pd=5.29 as=0.725 ps=5.29 w=5 l=0.5
X92 VREFP.t50 a_216435_n47946.t11 1Bit_DAC_0.OUT.t33 VDD.t500 sky130_fd_pr__pfet_01v8 ad=0.825 pd=5.33 as=0.825 ps=5.33 w=5 l=0.15
X93 a_153429_n11365.t1 a_150997_n11365.t0 GND.t6 sky130_fd_pr__res_xhigh_po_5p73 l=10.16
X94 VDD.t347 a_185229_n11365.t33 C2S2_Amp_F_I_0.OUT VDD.t346 sky130_fd_pr__pfet_01v8 ad=0.725 pd=5.29 as=0.725 ps=5.29 w=5 l=0.5
X95 a_153429_n11365.t0 VMID.t2 a_156122_n20028.t1 GND.t2 sky130_fd_pr__nfet_01v8 ad=0.725 pd=5.29 as=0.725 ps=5.29 w=5 l=0.5
X96 1Bit_Clk_ADC_0.x9.B OUT.t18 a_233081_n27658# GND.t339 sky130_fd_pr__nfet_01v8 ad=0.08775 pd=0.92 as=0.08775 ps=0.92 w=0.65 l=0.15
X97 1Bit_DAC_Inv_0.OUT.t10 a_181475_n46496.t8 VREFN.t44 VDD.t192 sky130_fd_pr__pfet_01v8 ad=0.825 pd=5.33 as=0.825 ps=5.33 w=5 l=0.15
X98 VDD.t135 1Bit_Clk_ADC_0.x14.Y.t6 1Bit_Clk_ADC_0.x9.A VDD.t134 sky130_fd_pr__pfet_01v8_hvt ad=0.135 pd=1.27 as=0.135 ps=1.27 w=1 l=0.15
X99 a_188937_n26928.t18 a_188937_n26928.t17 VDD.t30 VDD.t29 sky130_fd_pr__pfet_01v8 ad=0.725 pd=5.29 as=0.725 ps=5.29 w=5 l=1
X100 a_219526_n14006.t37 a_219526_n14006.t36 VDD.t279 VDD.t38 sky130_fd_pr__pfet_01v8 ad=0.725 pd=5.29 as=0.725 ps=5.29 w=5 l=0.5
X101 VREFP.t49 a_216435_n47946.t12 1Bit_DAC_0.OUT.t44 VDD.t355 sky130_fd_pr__pfet_01v8 ad=0.825 pd=5.33 as=0.825 ps=5.33 w=5 l=0.15
X102 GND.t307 C2S2_Amp_F_I_1.constant_gm_fingers_0.Vout.t20 a_156122_n20028.t22 GND.t306 sky130_fd_pr__nfet_01v8 ad=0.725 pd=5.29 as=0.725 ps=5.29 w=5 l=1
X103 a_218222_n27786.t2 GND.t83 GND.t82 sky130_fd_pr__res_xhigh_po_5p73 l=69.16
X104 1Bit_DAC_Inv_0.OUT.t50 a_181475_n46496.t9 VREFN.t43 VDD.t518 sky130_fd_pr__pfet_01v8 ad=1.55 pd=10.62 as=0.825 ps=5.33 w=5 l=0.15
X105 a_153429_n11365.t23 a_156330_n13996.t52 VDD.t443 VDD.t429 sky130_fd_pr__pfet_01v8 ad=0.725 pd=5.29 as=0.725 ps=5.29 w=5 l=0.5
X106 VDD.t442 a_156330_n13996.t36 a_156330_n13996.t37 VDD.t392 sky130_fd_pr__pfet_01v8 ad=0.725 pd=5.29 as=0.725 ps=5.29 w=5 l=0.5
X107 VDD.t662 a_153429_n11365.t35 C2S2_Amp_F_I_1.OUT.t61 VDD.t661 sky130_fd_pr__pfet_01v8 ad=0.725 pd=5.29 as=0.725 ps=5.29 w=5 l=0.5
X108 GND.t413 1Bit_Clk_ADC_0.C2S2_Fingers_Amplifier_0.constant_gm_fingers_0.Vout.t19 a_219318_n20038.t25 GND.t412 sky130_fd_pr__nfet_01v8 ad=0.725 pd=5.29 as=0.725 ps=5.29 w=5 l=1
X109 VDD.t151 CLK.t2 1Bit_Clk_ADC_0.x14.Y.t0 VDD.t150 sky130_fd_pr__pfet_01v8_hvt ad=0.2352 pd=2.24 as=0.1134 ps=1.11 w=0.84 l=0.15
X110 a_196466_n47634# 1Bit_DAC_0.OUT.t28 GND.t224 sky130_fd_pr__res_xhigh_po_5p73 l=57.3
X111 1Bit_DAC_Inv_0.OUT.t18 OUT.t19 VREFN.t8 GND.t340 sky130_fd_pr__nfet_01v8 ad=0.825 pd=5.33 as=0.825 ps=5.33 w=5 l=0.15
X112 GND.t176 C2S2_Amp_F_I_0.constant_gm_fingers_0.Vout.t4 C2S2_Amp_F_I_0.constant_gm_fingers_0.Vout.t5 GND.t175 sky130_fd_pr__nfet_01v8 ad=0.18125 pd=1.54 as=0.18125 ps=1.54 w=1.25 l=1
X113 GND.t309 C2S2_Amp_F_I_1.constant_gm_fingers_0.Vout.t21 C2S2_Amp_F_I_1.OUT.t22 GND.t308 sky130_fd_pr__nfet_01v8 ad=0.725 pd=5.29 as=0.725 ps=5.29 w=5 l=1
X114 a_187922_n20028.t18 C2S2_Amp_F_I_0.constant_gm_fingers_0.Vout.t20 GND.t170 GND.t169 sky130_fd_pr__nfet_01v8 ad=0.725 pd=5.29 as=0.725 ps=5.29 w=5 l=1
X115 VDD.t473 a_220333_n26938.t13 a_220333_n26938.t14 VDD.t200 sky130_fd_pr__pfet_01v8 ad=0.725 pd=5.29 as=0.725 ps=5.29 w=5 l=1
X116 a_220333_n26938.t12 a_220333_n26938.t11 VDD.t698 VDD.t198 sky130_fd_pr__pfet_01v8 ad=0.725 pd=5.29 as=1.45 ps=10.58 w=5 l=1
X117 a_219526_n14006.t35 a_219526_n14006.t34 VDD.t19 VDD.t18 sky130_fd_pr__pfet_01v8 ad=0.725 pd=5.29 as=0.725 ps=5.29 w=5 l=0.5
X118 1Bit_Clk_ADC_0.x4.B CLK.t3 VDD.t521 VDD.t520 sky130_fd_pr__pfet_01v8_hvt ad=0.135 pd=1.27 as=0.135 ps=1.27 w=1 l=0.15
X119 VDD.t588 1Bit_Clk_ADC_0.x3.A 1Bit_Clk_ADC_0.x3.Y VDD.t587 sky130_fd_pr__pfet_01v8_hvt ad=0.135 pd=1.27 as=0.135 ps=1.27 w=1 l=0.15
X120 C2S2_Amp_F_I_0.OUT C2S2_Amp_F_I_0.constant_gm_fingers_0.Vout.t21 GND.t34 GND.t33 sky130_fd_pr__nfet_01v8 ad=0.725 pd=5.29 as=0.725 ps=5.29 w=5 l=1
X121 a_231021_n27343# 1Bit_Clk_ADC_0.x3.B.t16 GND.t113 GND.t112 sky130_fd_pr__nfet_01v8 ad=0.169 pd=1.82 as=0.08775 ps=0.92 w=0.65 l=0.15
X122 VDD.t441 a_156330_n13996.t53 a_153429_n11365.t22 VDD.t427 sky130_fd_pr__pfet_01v8 ad=0.725 pd=5.29 as=0.725 ps=5.29 w=5 l=0.5
X123 1Bit_Clk_ADC_0.x11.A 1Bit_Clk_ADC_0.x3.B.t17 VDD.t224 VDD.t223 sky130_fd_pr__pfet_01v8_hvt ad=0.135 pd=1.27 as=0.135 ps=1.27 w=1 l=0.15
X124 a_185229_n11365.t21 a_188130_n13996.t51 VDD.t308 VDD.t228 sky130_fd_pr__pfet_01v8 ad=0.725 pd=5.29 as=1.45 ps=10.58 w=5 l=0.5
X125 1Bit_Clk_ADC_0.x6.B a_216625_n11375.t40 VDD.t129 VDD.t128 sky130_fd_pr__pfet_01v8 ad=0.725 pd=5.29 as=0.725 ps=5.29 w=5 l=0.5
X126 1Bit_Clk_ADC_0.C2S2_Fingers_Amplifier_0.constant_gm_fingers_0.Vout.t5 1Bit_Clk_ADC_0.C2S2_Fingers_Amplifier_0.constant_gm_fingers_0.Vout.t4 GND.t80 GND.t79 sky130_fd_pr__nfet_01v8 ad=0.18125 pd=1.54 as=0.18125 ps=1.54 w=1.25 l=1
X127 1Bit_Clk_ADC_0.x6.B a_216625_n11375.t41 VDD.t131 VDD.t130 sky130_fd_pr__pfet_01v8 ad=0.725 pd=5.29 as=0.725 ps=5.29 w=5 l=0.5
X128 C2S2_Amp_F_I_0.OUT C2S2_Amp_F_I_0.constant_gm_fingers_0.Vout.t22 GND.t174 GND.t173 sky130_fd_pr__nfet_01v8 ad=0.725 pd=5.29 as=0.725 ps=5.29 w=5 l=1
X129 1Bit_Clk_ADC_0.x9.B OUT.t20 VDD.t551 VDD.t550 sky130_fd_pr__pfet_01v8_hvt ad=0.135 pd=1.27 as=0.135 ps=1.27 w=1 l=0.15
X130 a_216625_n11375.t13 VMID.t3 a_219318_n20038.t4 GND.t74 sky130_fd_pr__nfet_01v8 ad=0.725 pd=5.29 as=0.725 ps=5.29 w=5 l=0.5
X131 1Bit_DAC_Inv_0.OUT.t36 OUT.t21 VREFP.t31 VDD.t720 sky130_fd_pr__pfet_01v8 ad=0.825 pd=5.33 as=0.825 ps=5.33 w=5 l=0.15
X132 GND.t9 CLK.t4 a_230193_n27343# GND.t8 sky130_fd_pr__nfet_01v8 ad=0.08775 pd=0.92 as=0.08775 ps=0.92 w=0.65 l=0.15
X133 VDD.t71 CLK.t5 1Bit_Clk_ADC_0.x4.B VDD.t70 sky130_fd_pr__pfet_01v8_hvt ad=0.26 pd=2.52 as=0.135 ps=1.27 w=1 l=0.15
X134 1Bit_Clk_ADC_0.C2S2_Fingers_Amplifier_0.constant_gm_fingers_0.Vout.t14 a_220333_n26938.t23 VDD.t164 VDD.t163 sky130_fd_pr__pfet_01v8 ad=0.725 pd=5.29 as=0.725 ps=5.29 w=5 l=1
X135 VREFN.t42 a_181475_n46496.t10 1Bit_DAC_Inv_0.OUT.t40 VDD.t294 sky130_fd_pr__pfet_01v8 ad=0.825 pd=5.33 as=0.825 ps=5.33 w=5 l=0.15
X136 VDD.t3 a_219526_n14006.t32 a_219526_n14006.t33 VDD.t2 sky130_fd_pr__pfet_01v8 ad=0.725 pd=5.29 as=0.725 ps=5.29 w=5 l=0.5
X137 GND.t119 1Bit_Clk_ADC_0.C2S2_Fingers_Amplifier_0.constant_gm_fingers_0.Vout.t20 a_219318_n20038.t8 GND.t118 sky130_fd_pr__nfet_01v8 ad=0.725 pd=5.29 as=0.725 ps=5.29 w=5 l=1
X138 a_186826_n27776.t7 C2S2_Amp_F_I_0.constant_gm_fingers_0.Vout.t23 a_188937_n26928.t21 GND.t338 sky130_fd_pr__nfet_01v8 ad=0.725 pd=5.29 as=0.725 ps=5.29 w=5 l=1
X139 a_216625_n11375.t2 a_219526_n14006.t51 VDD.t39 VDD.t38 sky130_fd_pr__pfet_01v8 ad=0.725 pd=5.29 as=0.725 ps=5.29 w=5 l=0.5
X140 1Bit_DAC_Inv_0.OUT.t35 OUT.t22 VREFP.t6 VDD.t721 sky130_fd_pr__pfet_01v8 ad=0.825 pd=5.33 as=0.825 ps=5.33 w=5 l=0.15
X141 VREFN.t41 a_181475_n46496.t11 1Bit_DAC_Inv_0.OUT.t1 VDD.t26 sky130_fd_pr__pfet_01v8 ad=0.825 pd=5.33 as=0.825 ps=5.33 w=5 l=0.15
X142 VDD.t660 a_153429_n11365.t36 C2S2_Amp_F_I_1.OUT.t60 VDD.t659 sky130_fd_pr__pfet_01v8 ad=0.725 pd=5.29 as=0.725 ps=5.29 w=5 l=0.5
X143 a_186826_n27776.t6 C2S2_Amp_F_I_0.constant_gm_fingers_0.Vout.t24 a_188937_n26928.t2 GND.t185 sky130_fd_pr__nfet_01v8 ad=0.725 pd=5.29 as=1.45 ps=10.58 w=5 l=1
X144 VDD.t658 a_153429_n11365.t37 C2S2_Amp_F_I_1.OUT.t59 VDD.t657 sky130_fd_pr__pfet_01v8 ad=0.725 pd=5.29 as=0.725 ps=5.29 w=5 l=0.5
X145 a_156330_n13996.t35 a_156330_n13996.t34 VDD.t440 VDD.t390 sky130_fd_pr__pfet_01v8 ad=0.725 pd=5.29 as=0.725 ps=5.29 w=5 l=0.5
X146 C2S2_Amp_F_I_0.OUT a_185229_n11365.t34 VDD.t453 VDD.t452 sky130_fd_pr__pfet_01v8 ad=0.725 pd=5.29 as=0.725 ps=5.29 w=5 l=0.5
X147 C2S2_Amp_F_I_0.OUT a_185229_n11365.t35 VDD.t13 VDD.t12 sky130_fd_pr__pfet_01v8 ad=0.725 pd=5.29 as=0.725 ps=5.29 w=5 l=0.5
X148 VDD.t227 a_188130_n13996.t36 a_188130_n13996.t37 VDD.t193 sky130_fd_pr__pfet_01v8 ad=0.725 pd=5.29 as=0.725 ps=5.29 w=5 l=0.5
X149 VREFN.t40 a_181475_n46496.t12 1Bit_DAC_Inv_0.OUT.t48 VDD.t514 sky130_fd_pr__pfet_01v8 ad=0.825 pd=5.33 as=0.825 ps=5.33 w=5 l=0.15
X150 1Bit_Clk_ADC_0.x6.B 1Bit_Clk_ADC_0.C2S2_Fingers_Amplifier_0.constant_gm_fingers_0.Vout.t21 GND.t121 GND.t120 sky130_fd_pr__nfet_01v8 ad=0.725 pd=5.29 as=0.725 ps=5.29 w=5 l=1
X151 VDD.t122 a_188937_n26928.t22 C2S2_Amp_F_I_0.constant_gm_fingers_0.Vout.t15 VDD.t121 sky130_fd_pr__pfet_01v8 ad=1.45 pd=10.58 as=0.725 ps=5.29 w=5 l=1
X152 VREFN.t7 OUT.t23 1Bit_DAC_Inv_0.OUT.t12 GND.t431 sky130_fd_pr__nfet_01v8 ad=0.825 pd=5.33 as=0.825 ps=5.33 w=5 l=0.15
X153 a_232253_n27658# 1Bit_Clk_ADC_0.x14.Y.t7 1Bit_Clk_ADC_0.sky130_fd_sc_hd__nand2_4_0.Y GND.t144 sky130_fd_pr__nfet_01v8 ad=0.08775 pd=0.92 as=0.08775 ps=0.92 w=0.65 l=0.15
X154 a_230965_n27658# 1Bit_Clk_ADC_0.x3.Y 1Bit_Clk_ADC_0.x3.B.t6 GND.t317 sky130_fd_pr__nfet_01v8 ad=0.169 pd=1.82 as=0.08775 ps=0.92 w=0.65 l=0.15
X155 a_216625_n11375.t18 a_219526_n14006.t52 VDD.t275 VDD.t18 sky130_fd_pr__pfet_01v8 ad=0.725 pd=5.29 as=0.725 ps=5.29 w=5 l=0.5
X156 C2S2_Amp_F_I_0.OUT C2S2_Amp_F_I_0.constant_gm_fingers_0.Vout.t25 GND.t429 GND.t428 sky130_fd_pr__nfet_01v8 ad=0.725 pd=5.29 as=0.725 ps=5.29 w=5 l=1
X157 a_187922_n20028.t17 C2S2_Amp_F_I_0.constant_gm_fingers_0.Vout.t26 GND.t162 GND.t161 sky130_fd_pr__nfet_01v8 ad=0.725 pd=5.29 as=0.725 ps=5.29 w=5 l=1
X158 1Bit_Clk_ADC_0.x6.B a_214193_n11375.t5 sky130_fd_pr__cap_mim_m3_1 l=16 w=16
X159 VREFN.t39 a_181475_n46496.t13 1Bit_DAC_Inv_0.OUT.t52 VDD.t522 sky130_fd_pr__pfet_01v8 ad=0.825 pd=5.33 as=0.825 ps=5.33 w=5 l=0.15
X160 1Bit_DAC_0.OUT.t36 a_216435_n47946.t13 VREFP.t48 VDD.t387 sky130_fd_pr__pfet_01v8 ad=1.55 pd=10.62 as=0.825 ps=5.33 w=5 l=0.15
X161 a_153429_n11365.t21 a_156330_n13996.t54 VDD.t439 VDD.t424 sky130_fd_pr__pfet_01v8 ad=0.725 pd=5.29 as=0.725 ps=5.29 w=5 l=0.5
X162 VDD.t438 a_156330_n13996.t32 a_156330_n13996.t33 VDD.t437 sky130_fd_pr__pfet_01v8 ad=0.725 pd=5.29 as=0.725 ps=5.29 w=5 l=0.5
X163 C2S2_Amp_F_I_1.OUT.t58 a_153429_n11365.t38 VDD.t656 VDD.t655 sky130_fd_pr__pfet_01v8 ad=0.725 pd=5.29 as=0.725 ps=5.29 w=5 l=0.5
X164 C2S2_Amp_F_I_0.OUT a_185229_n11365.t36 VDD.t351 VDD.t350 sky130_fd_pr__pfet_01v8 ad=0.725 pd=5.29 as=0.725 ps=5.29 w=5 l=0.5
X165 a_216625_n11375.t23 VMID.t4 a_219318_n20038.t14 GND.t238 sky130_fd_pr__nfet_01v8 ad=0.725 pd=5.29 as=0.725 ps=5.29 w=5 l=0.5
X166 VDD.t291 1Bit_Clk_ADC_0.x3.B.t18 1Bit_Clk_ADC_0.x11.A VDD.t290 sky130_fd_pr__pfet_01v8_hvt ad=0.135 pd=1.27 as=0.135 ps=1.27 w=1 l=0.15
X167 VREFN.t27 OUT.t24 1Bit_DAC_0.OUT.t2 VDD.t552 sky130_fd_pr__pfet_01v8 ad=0.825 pd=5.33 as=0.825 ps=5.33 w=5 l=0.15
X168 VDD.t358 a_185229_n11365.t37 C2S2_Amp_F_I_0.OUT VDD.t357 sky130_fd_pr__pfet_01v8 ad=0.725 pd=5.29 as=0.725 ps=5.29 w=5 l=0.5
X169 VDD.t489 a_219526_n14006.t30 a_219526_n14006.t31 VDD.t43 sky130_fd_pr__pfet_01v8 ad=0.725 pd=5.29 as=0.725 ps=5.29 w=5 l=0.5
X170 a_188130_n13996.t2 C2S2_Amp_F_I_0.VN.t4 a_187922_n20028.t2 GND.t13 sky130_fd_pr__nfet_01v8 ad=1.45 pd=10.58 as=0.725 ps=5.29 w=5 l=0.5
X171 VDD.t436 a_156330_n13996.t55 a_153429_n11365.t20 VDD.t421 sky130_fd_pr__pfet_01v8 ad=0.725 pd=5.29 as=0.725 ps=5.29 w=5 l=0.5
X172 a_231797_n27343# 1Bit_Clk_ADC_0.x11.A 1Bit_Clk_ADC_0.x9.A GND.t373 sky130_fd_pr__nfet_01v8 ad=0.169 pd=1.82 as=0.08775 ps=0.92 w=0.65 l=0.15
X173 VDD.t570 1Bit_Clk_ADC_0.x9.A OUT.t11 VDD.t569 sky130_fd_pr__pfet_01v8_hvt ad=0.135 pd=1.27 as=0.135 ps=1.27 w=1 l=0.15
X174 1Bit_Clk_ADC_0.x3.A 1Bit_Clk_ADC_0.x5.A VDD.t578 VDD.t577 sky130_fd_pr__pfet_01v8_hvt ad=0.135 pd=1.27 as=0.135 ps=1.27 w=1 l=0.15
X175 VDD.t155 a_216625_n11375.t42 1Bit_Clk_ADC_0.x6.B VDD.t154 sky130_fd_pr__pfet_01v8 ad=0.725 pd=5.29 as=0.725 ps=5.29 w=5 l=0.5
X176 VDD.t143 a_219526_n14006.t53 a_216625_n11375.t9 VDD.t2 sky130_fd_pr__pfet_01v8 ad=0.725 pd=5.29 as=0.725 ps=5.29 w=5 l=0.5
X177 VDD.t41 a_216625_n11375.t43 1Bit_Clk_ADC_0.x6.B VDD.t40 sky130_fd_pr__pfet_01v8 ad=0.725 pd=5.29 as=0.725 ps=5.29 w=5 l=0.5
X178 GND.t342 OUT.t25 a_181475_n46496.t1 GND.t341 sky130_fd_pr__nfet_01v8 ad=1.55 pd=10.62 as=0.825 ps=5.33 w=5 l=0.15
X179 VDD.t499 a_185229_n11365.t38 C2S2_Amp_F_I_0.OUT VDD.t498 sky130_fd_pr__pfet_01v8 ad=0.725 pd=5.29 as=0.725 ps=5.29 w=5 l=0.5
X180 VDD.t382 CLK.t6 1Bit_Clk_ADC_0.x3.A VDD.t381 sky130_fd_pr__pfet_01v8_hvt ad=0.135 pd=1.27 as=0.135 ps=1.27 w=1 l=0.15
X181 a_174650_n12474# a_175892_n24334# GND.t57 sky130_fd_pr__res_xhigh_po_5p73 l=57.3
X182 1Bit_DAC_Inv_0.OUT.t44 a_181475_n46496.t14 VREFN.t38 VDD.t451 sky130_fd_pr__pfet_01v8 ad=0.825 pd=5.33 as=0.825 ps=5.33 w=5 l=0.15
X183 C2S2_Amp_F_I_0.OUT a_182797_n11365.t5 sky130_fd_pr__cap_mim_m3_1 l=16 w=16
X184 1Bit_Clk_ADC_0.x6.B a_216625_n11375.t44 VDD.t203 VDD.t202 sky130_fd_pr__pfet_01v8 ad=0.725 pd=5.29 as=0.725 ps=5.29 w=5 l=0.5
X185 1Bit_DAC_Inv_0.OUT.t11 OUT.t26 VREFN.t6 GND.t343 sky130_fd_pr__nfet_01v8 ad=0.825 pd=5.33 as=0.825 ps=5.33 w=5 l=0.15
X186 C2S2_Amp_F_I_1.OUT.t57 a_153429_n11365.t39 VDD.t654 VDD.t653 sky130_fd_pr__pfet_01v8 ad=0.725 pd=5.29 as=0.725 ps=5.29 w=5 l=0.5
X187 a_219318_n20038.t3 1Bit_Clk_ADC_0.C2S2_Fingers_Amplifier_0.constant_gm_fingers_0.Vout.t22 GND.t66 GND.t65 sky130_fd_pr__nfet_01v8 ad=0.725 pd=5.29 as=0.725 ps=5.29 w=5 l=1
X188 VDD.t652 a_153429_n11365.t40 C2S2_Amp_F_I_1.OUT.t56 VDD.t651 sky130_fd_pr__pfet_01v8 ad=0.725 pd=5.29 as=0.725 ps=5.29 w=5 l=0.5
X189 a_219318_n20038.t1 VMID.t5 a_216625_n11375.t7 GND.t44 sky130_fd_pr__nfet_01v8 ad=0.725 pd=5.29 as=1.45 ps=10.58 w=5 l=0.5
X190 1Bit_Clk_ADC_0.x9.B 1Bit_Clk_ADC_0.sky130_fd_sc_hd__nand2_4_0.Y VDD.t306 VDD.t305 sky130_fd_pr__pfet_01v8_hvt ad=0.135 pd=1.27 as=0.26 ps=2.52 w=1 l=0.15
X191 1Bit_DAC_Inv_0.OUT.t4 a_181475_n46496.t15 VREFN.t37 VDD.t72 sky130_fd_pr__pfet_01v8 ad=0.825 pd=5.33 as=0.825 ps=5.33 w=5 l=0.15
X192 C2S2_Amp_F_I_0.OUT a_185229_n11365.t39 VDD.t37 VDD.t36 sky130_fd_pr__pfet_01v8 ad=0.725 pd=5.29 as=0.725 ps=5.29 w=5 l=0.5
X193 VDD.t76 a_157137_n26928.t23 C2S2_Amp_F_I_1.constant_gm_fingers_0.Vout.t6 VDD.t75 sky130_fd_pr__pfet_01v8 ad=1.45 pd=10.58 as=0.725 ps=5.29 w=5 l=1
X194 VREFP.t47 a_216435_n47946.t14 1Bit_DAC_0.OUT.t32 VDD.t383 sky130_fd_pr__pfet_01v8 ad=0.825 pd=5.33 as=0.825 ps=5.33 w=5 l=0.15
X195 1Bit_Clk_ADC_0.x3.A 1Bit_Clk_ADC_0.x5.A a_230193_n27343# GND.t365 sky130_fd_pr__nfet_01v8 ad=0.08775 pd=0.92 as=0.169 ps=1.82 w=0.65 l=0.15
X196 a_143150_n12474# a_144392_n24334# GND.t163 sky130_fd_pr__res_xhigh_po_5p73 l=57.3
X197 VDD.t692 1Bit_Clk_ADC_0.x6.B 1Bit_Clk_ADC_0.x4.B VDD.t691 sky130_fd_pr__pfet_01v8_hvt ad=0.135 pd=1.27 as=0.135 ps=1.27 w=1 l=0.15
X198 GND.t335 CLK.t7 1Bit_Clk_ADC_0.x14.Y.t1 GND.t334 sky130_fd_pr__nfet_01v8 ad=0.1197 pd=1.41 as=0.1092 ps=1.36 w=0.42 l=0.15
X199 C2S2_Amp_F_I_1.OUT.t21 C2S2_Amp_F_I_1.constant_gm_fingers_0.Vout.t22 GND.t258 GND.t257 sky130_fd_pr__nfet_01v8 ad=0.725 pd=5.29 as=0.725 ps=5.29 w=5 l=1
X200 1Bit_DAC_0.OUT.t0 OUT.t27 VREFN.t26 VDD.t57 sky130_fd_pr__pfet_01v8 ad=0.825 pd=5.33 as=0.825 ps=5.33 w=5 l=0.15
X201 VDD.t504 a_157137_n26928.t24 C2S2_Amp_F_I_1.constant_gm_fingers_0.Vout.t5 VDD.t503 sky130_fd_pr__pfet_01v8 ad=0.725 pd=5.29 as=0.725 ps=5.29 w=5 l=1
X202 VDD.t44 a_219526_n14006.t54 a_216625_n11375.t3 VDD.t43 sky130_fd_pr__pfet_01v8 ad=0.725 pd=5.29 as=0.725 ps=5.29 w=5 l=0.5
X203 a_219526_n14006.t29 a_219526_n14006.t28 VDD.t1 VDD.t0 sky130_fd_pr__pfet_01v8 ad=0.725 pd=5.29 as=0.725 ps=5.29 w=5 l=0.5
X204 C2S2_Amp_F_I_1.OUT.t55 a_153429_n11365.t41 VDD.t650 VDD.t649 sky130_fd_pr__pfet_01v8 ad=0.725 pd=5.29 as=0.725 ps=5.29 w=5 l=0.5
X205 GND.t260 C2S2_Amp_F_I_1.constant_gm_fingers_0.Vout.t23 C2S2_Amp_F_I_1.OUT.t20 GND.t259 sky130_fd_pr__nfet_01v8 ad=0.725 pd=5.29 as=1.45 ps=10.58 w=5 l=1
X206 1Bit_Clk_ADC_0.x6.B 1Bit_Clk_ADC_0.C2S2_Fingers_Amplifier_0.constant_gm_fingers_0.Vout.t23 GND.t68 GND.t67 sky130_fd_pr__nfet_01v8 ad=0.725 pd=5.29 as=0.725 ps=5.29 w=5 l=1
X207 1Bit_DAC_0.OUT.t10 OUT.t28 VREFN.t25 VDD.t58 sky130_fd_pr__pfet_01v8 ad=0.825 pd=5.33 as=0.825 ps=5.33 w=5 l=0.15
X208 VDD.t304 1Bit_Clk_ADC_0.sky130_fd_sc_hd__nand2_4_0.Y 1Bit_Clk_ADC_0.x9.B VDD.t303 sky130_fd_pr__pfet_01v8_hvt ad=0.135 pd=1.27 as=0.135 ps=1.27 w=1 l=0.15
X209 C2S2_Amp_F_I_1.OUT.t54 a_153429_n11365.t42 VDD.t648 VDD.t647 sky130_fd_pr__pfet_01v8 ad=0.725 pd=5.29 as=0.725 ps=5.29 w=5 l=0.5
X210 VDD.t435 a_156330_n13996.t56 a_153429_n11365.t19 VDD.t419 sky130_fd_pr__pfet_01v8 ad=0.725 pd=5.29 as=0.725 ps=5.29 w=5 l=0.5
X211 a_156330_n13996.t31 a_156330_n13996.t30 VDD.t434 VDD.t433 sky130_fd_pr__pfet_01v8 ad=0.725 pd=5.29 as=0.725 ps=5.29 w=5 l=0.5
X212 VDD.t471 a_185229_n11365.t40 C2S2_Amp_F_I_0.OUT VDD.t470 sky130_fd_pr__pfet_01v8 ad=0.725 pd=5.29 as=0.725 ps=5.29 w=5 l=0.5
X213 a_230193_n27343# 1Bit_Clk_ADC_0.x5.A 1Bit_Clk_ADC_0.x3.A GND.t364 sky130_fd_pr__nfet_01v8 ad=0.08775 pd=0.92 as=0.08775 ps=0.92 w=0.65 l=0.15
X214 VDD.t690 1Bit_Clk_ADC_0.x6.B 1Bit_Clk_ADC_0.x5.A VDD.t689 sky130_fd_pr__pfet_01v8_hvt ad=0.135 pd=1.27 as=0.135 ps=1.27 w=1 l=0.15
X215 a_155026_n27776.t7 C2S2_Amp_F_I_1.constant_gm_fingers_0.Vout.t24 a_157137_n26928.t20 GND.t264 sky130_fd_pr__nfet_01v8 ad=0.725 pd=5.29 as=1.45 ps=10.58 w=5 l=1
X216 a_185229_n11365.t20 a_188130_n13996.t52 VDD.t309 VDD.t111 sky130_fd_pr__pfet_01v8 ad=0.725 pd=5.29 as=0.725 ps=5.29 w=5 l=0.5
X217 VDD.t466 a_188130_n13996.t34 a_188130_n13996.t35 VDD.t195 sky130_fd_pr__pfet_01v8 ad=0.725 pd=5.29 as=0.725 ps=5.29 w=5 l=0.5
X218 a_187922_n20028.t16 C2S2_Amp_F_I_0.constant_gm_fingers_0.Vout.t27 GND.t184 GND.t183 sky130_fd_pr__nfet_01v8 ad=0.725 pd=5.29 as=0.725 ps=5.29 w=5 l=1
X219 VDD.t60 OUT.t29 a_181475_n46496.t5 VDD.t59 sky130_fd_pr__pfet_01v8 ad=1.55 pd=10.62 as=0.825 ps=5.33 w=5 l=0.15