* NGSPICE file created from flashADC_flat.ext - technology: sky130A

.subckt flashADC_flat VL I0 VV15 VV12 VV11 S0 R0 R1 S1 VV16 I3 VV6 VV8 VV10 I13 VV14
+ I5 VV3 I4 VV9 I11 VV4 VV1 I10 I1 I2 I6 OUT3 OUT2 VV7 VV2 I12 I9 OUT1 VFS I14 VV5
+ VV13 I8 OUT0 CLK I15 VIN GND VDD I7
X0 GND.t1375 frontAnalog_v0p0p1_7.x65.X frontAnalog_v0p0p1_7.RSfetsym_0.x2.Y GND.t1374 sky130_fd_pr__nfet_01v8 ad=0.169 pd=1.82 as=0.0878 ps=0.92 w=0.65 l=0.15
X1 OUT3.t127 16to4_PriorityEncoder_v0p0p1_0.x43.Y VDD.t1251 VDD.t1250 sky130_fd_pr__pfet_01v8_hvt ad=0.135 pd=1.27 as=0.135 ps=1.27 w=1 l=0.15
X2 VDD.t1059 frontAnalog_v0p0p1_15.x63.A.t4 a_57123_n85079# VDD.t1058 sky130_fd_pr__pfet_01v8_hvt ad=0.115 pd=1.08 as=0.205 ps=2.1 w=0.79 l=0.15
X3 GND.t208 16to4_PriorityEncoder_v0p0p1_0.x22.Y OUT0.t63 GND.t207 sky130_fd_pr__nfet_01v8 ad=0.0878 pd=0.92 as=0.0878 ps=0.92 w=0.65 l=0.15
X4 VDD.t490 frontAnalog_v0p0p1_10.x63.X I5.t1 VDD.t485 sky130_fd_pr__pfet_01v8 ad=0.58 pd=4.58 as=0.29 ps=2.29 w=2 l=0.25
X5 VDD.t965 16to4_PriorityEncoder_v0p0p1_0.x36.Y OUT2.t127 VDD.t964 sky130_fd_pr__pfet_01v8_hvt ad=0.135 pd=1.27 as=0.135 ps=1.27 w=1 l=0.15
X6 VFS.t3 VV16.t6 GND.t21 sky130_fd_pr__res_xhigh_po_5p73 l=2.52
X7 a_78315_n41309# 16to4_PriorityEncoder_v0p0p1_0.x5.x11.X a_78243_n41309# VDD.t290 sky130_fd_pr__pfet_01v8_hvt ad=0.0693 pd=0.75 as=0.0441 ps=0.63 w=0.42 l=0.15
X8 a_16719_n13117.t23 a_16599_n13205.t4 a_16541_n13117.t7 GND.t1567 sky130_fd_pr__nfet_01v8_lvt ad=1.16 pd=8.58 as=1.16 ps=8.58 w=4 l=0.6
X9 w_55000_n56928# CLK.t0 frontAnalog_v0p0p1_10.x65.A.t3 VDD.t1084 sky130_fd_pr__pfet_01v8_lvt ad=1.16 pd=8.58 as=1.16 ps=8.58 w=4 l=0.35
X10 VV4.t4 VV3.t5 GND.t244 sky130_fd_pr__res_xhigh_po_5p73 l=2.52
X11 frontAnalog_v0p0p1_3.x65.X a_57123_n13359# VDD.t1384 VDD.t1383 sky130_fd_pr__pfet_01v8_hvt ad=0.205 pd=2.1 as=0.115 ps=1.08 w=0.79 l=0.15
X12 VDD.t1340 frontAnalog_v0p0p1_9.x63.X frontAnalog_v0p0p1_9.RSfetsym_0.x1.Y VDD.t1333 sky130_fd_pr__pfet_01v8_hvt ad=0.135 pd=1.27 as=0.135 ps=1.27 w=1 l=0.15
X13 OUT3.t63 16to4_PriorityEncoder_v0p0p1_0.x43.Y GND.t1312 GND.t1311 sky130_fd_pr__nfet_01v8 ad=0.0878 pd=0.92 as=0.0878 ps=0.92 w=0.65 l=0.15
X14 frontAnalog_v0p0p1_14.x65.A.t2 frontAnalog_v0p0p1_14.x63.A.t4 a_55268_n79536# GND.t861 sky130_fd_pr__nfet_01v8_lvt ad=0.29 pd=2.58 as=0.29 ps=2.58 w=1 l=0.15
X15 OUT2.t63 16to4_PriorityEncoder_v0p0p1_0.x36.Y GND.t1012 GND.t1011 sky130_fd_pr__nfet_01v8 ad=0.0878 pd=0.92 as=0.0878 ps=0.92 w=0.65 l=0.15
X16 frontAnalog_v0p0p1_5.RSfetsym_0.QN.t0 frontAnalog_v0p0p1_5.RSfetsym_0.x1.Y GND.t11 GND.t10 sky130_fd_pr__nfet_01v8 ad=0.58 pd=4.58 as=0.58 ps=4.58 w=2 l=0.25
X17 16to4_PriorityEncoder_v0p0p1_0.x29.A 16to4_PriorityEncoder_v0p0p1_0.x28.A VDD.t993 VDD.t992 sky130_fd_pr__pfet_01v8_hvt ad=0.135 pd=1.27 as=0.26 ps=2.52 w=1 l=0.15
X18 VV11.t13 VV10.t14 GND.t299 sky130_fd_pr__res_xhigh_po_5p73 l=2.52
X19 frontAnalog_v0p0p1_6.x63.X a_57123_n31079# GND.t582 GND.t581 sky130_fd_pr__nfet_01v8 ad=0.135 pd=1.56 as=0.0754 ps=0.81 w=0.52 l=0.15
X20 GND.t1310 16to4_PriorityEncoder_v0p0p1_0.x43.Y OUT3.t62 GND.t1309 sky130_fd_pr__nfet_01v8 ad=0.0878 pd=0.92 as=0.0878 ps=0.92 w=0.65 l=0.15
X21 GND.t1059 frontAnalog_v0p0p1_8.x63.X frontAnalog_v0p0p1_8.RSfetsym_0.x1.Y GND.t1054 sky130_fd_pr__nfet_01v8 ad=0.169 pd=1.82 as=0.0878 ps=0.92 w=0.65 l=0.15
X22 GND.t1010 16to4_PriorityEncoder_v0p0p1_0.x36.Y OUT2.t62 GND.t1009 sky130_fd_pr__nfet_01v8 ad=0.0878 pd=0.92 as=0.0878 ps=0.92 w=0.65 l=0.15
X23 OUT3.t126 16to4_PriorityEncoder_v0p0p1_0.x43.Y VDD.t1249 VDD.t1248 sky130_fd_pr__pfet_01v8_hvt ad=0.135 pd=1.27 as=0.135 ps=1.27 w=1 l=0.15
X24 VV2.t5 VV1.t2 GND.t12 sky130_fd_pr__res_xhigh_po_5p73 l=2.52
X25 a_53630_n84996# VV1.t16 w_55000_n83928# GND.t284 sky130_fd_pr__nfet_01v8_lvt ad=1.16 pd=8.58 as=1.16 ps=8.58 w=4 l=0.6
X26 16to4_PriorityEncoder_v0p0p1_0.x29.Y 16to4_PriorityEncoder_v0p0p1_0.x29.A GND.t241 GND.t240 sky130_fd_pr__nfet_01v8 ad=0.0878 pd=0.92 as=0.0878 ps=0.92 w=0.65 l=0.15
X27 GND.t1151 I0.t5 a_77605_n47345# GND.t531 sky130_fd_pr__nfet_01v8 ad=0.102 pd=0.99 as=0.0567 ps=0.69 w=0.42 l=0.15
X28 VDD.t214 16to4_PriorityEncoder_v0p0p1_0.x22.Y OUT0.t127 VDD.t213 sky130_fd_pr__pfet_01v8_hvt ad=0.135 pd=1.27 as=0.135 ps=1.27 w=1 l=0.15
X29 VDD.t1247 16to4_PriorityEncoder_v0p0p1_0.x43.Y OUT3.t125 VDD.t1246 sky130_fd_pr__pfet_01v8_hvt ad=0.135 pd=1.27 as=0.135 ps=1.27 w=1 l=0.15
X30 a_55268_n63336# CLK.t1 GND.t1144 GND.t1143 sky130_fd_pr__nfet_01v8_lvt ad=0.29 pd=2.58 as=0.29 ps=2.58 w=1 l=0.15
X31 GND.t486 16to4_PriorityEncoder_v0p0p1_0.x5.x17.A a_78349_n43045# GND.t319 sky130_fd_pr__nfet_01v8 ad=0.102 pd=0.99 as=0.0567 ps=0.69 w=0.42 l=0.15
X32 frontAnalog_v0p0p1_14.RSfetsym_0.x1.Y R1.t2 VDD.t561 VDD.t560 sky130_fd_pr__pfet_01v8_hvt ad=0.135 pd=1.27 as=0.26 ps=2.52 w=1 l=0.15
X33 a_77605_n51335# I2.t5 VDD.t1065 VDD.t1064 sky130_fd_pr__pfet_01v8_hvt ad=0.0735 pd=0.77 as=0.109 ps=1.36 w=0.42 l=0.15
X34 frontAnalog_v0p0p1_5.RSfetsym_0.x1.Y frontAnalog_v0p0p1_5.x63.X GND.t1033 GND.t1029 sky130_fd_pr__nfet_01v8 ad=0.0878 pd=0.92 as=0.169 ps=1.82 w=0.65 l=0.15
X35 VDD.t489 frontAnalog_v0p0p1_10.x63.X frontAnalog_v0p0p1_10.RSfetsym_0.x1.Y VDD.t483 sky130_fd_pr__pfet_01v8_hvt ad=0.26 pd=2.52 as=0.135 ps=1.27 w=1 l=0.15
X36 VDD.t814 VDD.t812 a_77605_n43295# VDD.t813 sky130_fd_pr__pfet_01v8_hvt ad=0.312 pd=1.68 as=0.0588 ps=0.7 w=0.42 l=0.15
X37 VDD.t779 16to4_PriorityEncoder_v0p0p1_0.x29.Y OUT1.t127 VDD.t778 sky130_fd_pr__pfet_01v8_hvt ad=0.135 pd=1.27 as=0.135 ps=1.27 w=1 l=0.15
X38 GND.t1308 16to4_PriorityEncoder_v0p0p1_0.x43.Y OUT3.t61 GND.t1307 sky130_fd_pr__nfet_01v8 ad=0.0878 pd=0.92 as=0.0878 ps=0.92 w=0.65 l=0.15
X39 GND.t1022 frontAnalog_v0p0p1_8.RSfetsym_0.QN.t5 a_59577_n46683# GND.t1021 sky130_fd_pr__nfet_01v8 ad=0.29 pd=2.58 as=0.29 ps=2.58 w=1 l=0.15
X40 GND.t1008 16to4_PriorityEncoder_v0p0p1_0.x36.Y OUT2.t61 GND.t1007 sky130_fd_pr__nfet_01v8 ad=0.0878 pd=0.92 as=0.0878 ps=0.92 w=0.65 l=0.15
X41 GND.t360 I5.t5 a_59578_n56970# GND.t359 sky130_fd_pr__nfet_01v8 ad=0.29 pd=2.58 as=0.29 ps=2.58 w=1 l=0.15
X42 a_53630_n41796# VV9.t16 w_55000_n40728# GND.t1094 sky130_fd_pr__nfet_01v8_lvt ad=1.16 pd=8.58 as=1.16 ps=8.58 w=4 l=0.6
X43 VDD.t963 16to4_PriorityEncoder_v0p0p1_0.x36.Y OUT2.t126 VDD.t962 sky130_fd_pr__pfet_01v8_hvt ad=0.135 pd=1.27 as=0.135 ps=1.27 w=1 l=0.15
X44 VV16.t4 VV15.t3 GND.t80 sky130_fd_pr__res_xhigh_po_5p73 l=2.52
X45 OUT1.t63 16to4_PriorityEncoder_v0p0p1_0.x29.Y GND.t846 GND.t845 sky130_fd_pr__nfet_01v8 ad=0.0878 pd=0.92 as=0.0878 ps=0.92 w=0.65 l=0.15
X46 GND.t400 frontAnalog_v0p0p1_12.x65.X frontAnalog_v0p0p1_12.RSfetsym_0.x2.Y GND.t399 sky130_fd_pr__nfet_01v8 ad=0.0878 pd=0.92 as=0.0878 ps=0.92 w=0.65 l=0.15
X47 OUT2.t125 16to4_PriorityEncoder_v0p0p1_0.x36.Y VDD.t961 VDD.t960 sky130_fd_pr__pfet_01v8_hvt ad=0.135 pd=1.27 as=0.135 ps=1.27 w=1 l=0.15
X48 GND.t239 16to4_PriorityEncoder_v0p0p1_0.x29.A 16to4_PriorityEncoder_v0p0p1_0.x29.Y GND.t238 sky130_fd_pr__nfet_01v8 ad=0.0878 pd=0.92 as=0.0878 ps=0.92 w=0.65 l=0.15
X49 frontAnalog_v0p0p1_7.RSfetsym_0.x1.Y frontAnalog_v0p0p1_7.x63.X VDD.t587 VDD.t580 sky130_fd_pr__pfet_01v8_hvt ad=0.135 pd=1.27 as=0.26 ps=2.52 w=1 l=0.15
X50 OUT0.t62 16to4_PriorityEncoder_v0p0p1_0.x22.Y GND.t206 GND.t205 sky130_fd_pr__nfet_01v8 ad=0.0878 pd=0.92 as=0.0878 ps=0.92 w=0.65 l=0.15
X51 a_77637_n50057# 16to4_PriorityEncoder_v0p0p1_0.x3.EI VDD.t363 VDD.t362 sky130_fd_pr__pfet_01v8_hvt ad=0.0567 pd=0.69 as=0.118 ps=1.4 w=0.42 l=0.15
X52 frontAnalog_v0p0p1_2.x65.A.t3 frontAnalog_v0p0p1_2.x63.A.t4 a_55268_n3936# GND.t503 sky130_fd_pr__nfet_01v8_lvt ad=0.29 pd=2.58 as=0.29 ps=2.58 w=1 l=0.15
X53 VDD.t1 S0.t2 frontAnalog_v0p0p1_15.RSfetsym_0.QN.t4 VDD.t0 sky130_fd_pr__pfet_01v8 ad=0.58 pd=4.58 as=0.29 ps=2.29 w=2 l=0.25
X54 GND.t1306 16to4_PriorityEncoder_v0p0p1_0.x43.Y OUT3.t60 GND.t1305 sky130_fd_pr__nfet_01v8 ad=0.0878 pd=0.92 as=0.0878 ps=0.92 w=0.65 l=0.15
X55 GND.t204 16to4_PriorityEncoder_v0p0p1_0.x22.Y OUT0.t61 GND.t203 sky130_fd_pr__nfet_01v8 ad=0.0878 pd=0.92 as=0.0878 ps=0.92 w=0.65 l=0.15
X56 a_82906_n51645# 16to4_PriorityEncoder_v0p0p1_0.x3.A0 GND.t1101 GND.t1100 sky130_fd_pr__nfet_01v8 ad=0.0567 pd=0.69 as=0.109 ps=1.36 w=0.42 l=0.15
X57 OUT3.t124 16to4_PriorityEncoder_v0p0p1_0.x43.Y VDD.t1245 VDD.t1244 sky130_fd_pr__pfet_01v8_hvt ad=0.135 pd=1.27 as=0.26 ps=2.52 w=1 l=0.15
X58 frontAnalog_v0p0p1_6.RSfetsym_0.QN.t3 I10.t5 VDD.t641 VDD.t395 sky130_fd_pr__pfet_01v8 ad=0.58 pd=4.58 as=0.58 ps=4.58 w=2 l=0.3
X59 a_77881_n44527# 16to4_PriorityEncoder_v0p0p1_0.x5.x18.C a_77775_n44527# GND.t511 sky130_fd_pr__nfet_01v8 ad=0.0693 pd=0.75 as=0.0798 ps=0.8 w=0.42 l=0.15
X60 GND.t1425 I13.t5 a_59578_n13770# GND.t1424 sky130_fd_pr__nfet_01v8 ad=0.29 pd=2.58 as=0.29 ps=2.58 w=1 l=0.15
X61 OUT3.t59 16to4_PriorityEncoder_v0p0p1_0.x43.Y GND.t1304 GND.t1303 sky130_fd_pr__nfet_01v8 ad=0.0878 pd=0.92 as=0.0878 ps=0.92 w=0.65 l=0.15
X62 16to4_PriorityEncoder_v0p0p1_0.x36.Y 16to4_PriorityEncoder_v0p0p1_0.x36.A GND.t63 GND.t62 sky130_fd_pr__nfet_01v8 ad=0.0878 pd=0.92 as=0.0878 ps=0.92 w=0.65 l=0.15
X63 a_53630_n9396# frontAnalog_v0p0p1_10.IB.t3 GND.t1017 GND.t293 sky130_fd_pr__nfet_01v8_lvt ad=1.16 pd=8.58 as=1.16 ps=8.58 w=4 l=0.6
X64 VDD.t1243 16to4_PriorityEncoder_v0p0p1_0.x43.Y OUT3.t123 VDD.t1242 sky130_fd_pr__pfet_01v8_hvt ad=0.135 pd=1.27 as=0.135 ps=1.27 w=1 l=0.15
X65 VDD.t465 frontAnalog_v0p0p1_2.x63.A.t5 a_57123_n4079# VDD.t464 sky130_fd_pr__pfet_01v8_hvt ad=0.115 pd=1.08 as=0.205 ps=2.1 w=0.79 l=0.15
X66 frontAnalog_v0p0p1_11.x63.X a_57123_n63479# VDD.t1463 VDD.t1462 sky130_fd_pr__pfet_01v8_hvt ad=0.205 pd=2.1 as=0.115 ps=1.08 w=0.79 l=0.15
X67 a_77723_n41087# VDD.t1502 a_77637_n41087# GND.t691 sky130_fd_pr__nfet_01v8 ad=0.0567 pd=0.69 as=0.118 ps=1.4 w=0.42 l=0.15
X68 VV14.t11 VV13.t12 GND.t299 sky130_fd_pr__res_xhigh_po_5p73 l=2.52
X69 GND.t416 frontAnalog_v0p0p1_6.x65.X frontAnalog_v0p0p1_6.RSfetsym_0.x2.Y GND.t415 sky130_fd_pr__nfet_01v8 ad=0.0878 pd=0.92 as=0.0878 ps=0.92 w=0.65 l=0.15
X70 GND.t374 16to4_PriorityEncoder_v0p0p1_0.x21.A 16to4_PriorityEncoder_v0p0p1_0.x22.A GND.t373 sky130_fd_pr__nfet_01v8 ad=0.0878 pd=0.92 as=0.0878 ps=0.92 w=0.65 l=0.15
X71 w_55000_n79150# VIN.t0 a_53630_n79596# GND.t22 sky130_fd_pr__nfet_01v8_lvt ad=1.16 pd=8.58 as=1.16 ps=8.58 w=4 l=0.6
X72 GND.t1389 R0.t2 frontAnalog_v0p0p1_15.RSfetsym_0.x1.Y GND.t1065 sky130_fd_pr__nfet_01v8 ad=0.0878 pd=0.92 as=0.0878 ps=0.92 w=0.65 l=0.15
X73 VIN.t1 w_55000_n51528# error sky130_fd_pr__cap_var_lvt w=2 l=0.18
X74 GND.t844 16to4_PriorityEncoder_v0p0p1_0.x29.Y OUT1.t62 GND.t843 sky130_fd_pr__nfet_01v8 ad=0.0878 pd=0.92 as=0.0878 ps=0.92 w=0.65 l=0.15
X75 16to4_PriorityEncoder_v0p0p1_0.x5.x19.X a_77605_n44779# VDD.t432 VDD.t431 sky130_fd_pr__pfet_01v8_hvt ad=0.26 pd=2.52 as=0.312 ps=1.68 w=1 l=0.15
X76 OUT2.t124 16to4_PriorityEncoder_v0p0p1_0.x36.Y VDD.t959 VDD.t958 sky130_fd_pr__pfet_01v8_hvt ad=0.135 pd=1.27 as=0.135 ps=1.27 w=1 l=0.15
X77 VV4.t3 VV3.t3 GND.t401 sky130_fd_pr__res_xhigh_po_5p73 l=2.52
X78 16to4_PriorityEncoder_v0p0p1_0.x43.Y 16to4_PriorityEncoder_v0p0p1_0.x43.A VDD.t325 VDD.t324 sky130_fd_pr__pfet_01v8_hvt ad=0.135 pd=1.27 as=0.135 ps=1.27 w=1 l=0.15
X79 VDD.t248 frontAnalog_v0p0p1_4.x65.A.t4 a_57123_n18759# VDD.t247 sky130_fd_pr__pfet_01v8_hvt ad=0.115 pd=1.08 as=0.205 ps=2.1 w=0.79 l=0.15
X80 VV10.t5 VV9.t5 GND.t12 sky130_fd_pr__res_xhigh_po_5p73 l=2.52
X81 OUT0.t126 16to4_PriorityEncoder_v0p0p1_0.x22.Y VDD.t212 VDD.t211 sky130_fd_pr__pfet_01v8_hvt ad=0.135 pd=1.27 as=0.135 ps=1.27 w=1 l=0.15
X82 a_78065_n41309# 16to4_PriorityEncoder_v0p0p1_0.x5.x22.A GND.t324 GND.t323 sky130_fd_pr__nfet_01v8 ad=0.0693 pd=0.75 as=0.109 ps=1.36 w=0.42 l=0.15
X83 OUT0.t60 16to4_PriorityEncoder_v0p0p1_0.x22.Y GND.t202 GND.t201 sky130_fd_pr__nfet_01v8 ad=0.0878 pd=0.92 as=0.0878 ps=0.92 w=0.65 l=0.15
X84 GND.t200 16to4_PriorityEncoder_v0p0p1_0.x22.Y OUT0.t59 GND.t199 sky130_fd_pr__nfet_01v8 ad=0.0878 pd=0.92 as=0.0878 ps=0.92 w=0.65 l=0.15
X85 VV3.t7 VV2.t7 GND.t209 sky130_fd_pr__res_xhigh_po_5p73 l=2.52
X86 VDD.t361 16to4_PriorityEncoder_v0p0p1_0.x3.EI a_77605_n51335# VDD.t360 sky130_fd_pr__pfet_01v8_hvt ad=0.312 pd=1.68 as=0.0588 ps=0.7 w=0.42 l=0.15
X87 VV13.t0 VV12.t0 GND.t12 sky130_fd_pr__res_xhigh_po_5p73 l=2.52
X88 VDD.t210 16to4_PriorityEncoder_v0p0p1_0.x22.Y OUT0.t125 VDD.t209 sky130_fd_pr__pfet_01v8_hvt ad=0.135 pd=1.27 as=0.135 ps=1.27 w=1 l=0.15
X89 OUT3.t58 16to4_PriorityEncoder_v0p0p1_0.x43.Y GND.t1302 GND.t1301 sky130_fd_pr__nfet_01v8 ad=0.0878 pd=0.92 as=0.0878 ps=0.92 w=0.65 l=0.15
X90 frontAnalog_v0p0p1_9.x65.A.t2 CLK.t2 frontAnalog_v0p0p1_9.x63.A.t2 VDD.t1085 sky130_fd_pr__pfet_01v8_lvt ad=1.16 pd=8.58 as=1.16 ps=8.58 w=4 l=0.35
X91 OUT2.t60 16to4_PriorityEncoder_v0p0p1_0.x36.Y GND.t1006 GND.t1005 sky130_fd_pr__nfet_01v8 ad=0.0878 pd=0.92 as=0.0878 ps=0.92 w=0.65 l=0.15
X92 frontAnalog_v0p0p1_12.RSfetsym_0.x2.Y frontAnalog_v0p0p1_12.x65.X VDD.t377 VDD.t372 sky130_fd_pr__pfet_01v8_hvt ad=0.135 pd=1.27 as=0.135 ps=1.27 w=1 l=0.15
X93 VDD.t1241 16to4_PriorityEncoder_v0p0p1_0.x43.Y OUT3.t122 VDD.t1240 sky130_fd_pr__pfet_01v8_hvt ad=0.26 pd=2.52 as=0.135 ps=1.27 w=1 l=0.15
X94 frontAnalog_v0p0p1_4.x63.X a_57123_n20279# VDD.t86 VDD.t85 sky130_fd_pr__pfet_01v8_hvt ad=0.205 pd=2.1 as=0.115 ps=1.08 w=0.79 l=0.15
X95 GND.t842 16to4_PriorityEncoder_v0p0p1_0.x29.Y OUT1.t61 GND.t841 sky130_fd_pr__nfet_01v8 ad=0.0878 pd=0.92 as=0.0878 ps=0.92 w=0.65 l=0.15
X96 w_55000_n35950# VIN.t2 a_53630_n36396# GND.t281 sky130_fd_pr__nfet_01v8_lvt ad=1.16 pd=8.58 as=1.16 ps=8.58 w=4 l=0.6
X97 GND.t1532 frontAnalog_v0p0p1_1.x63.X frontAnalog_v0p0p1_1.RSfetsym_0.x1.Y GND.t1527 sky130_fd_pr__nfet_01v8 ad=0.0878 pd=0.92 as=0.0878 ps=0.92 w=0.65 l=0.15
X98 frontAnalog_v0p0p1_10.RSfetsym_0.x2.Y frontAnalog_v0p0p1_10.x65.X GND.t1181 GND.t1180 sky130_fd_pr__nfet_01v8 ad=0.0878 pd=0.92 as=0.169 ps=1.82 w=0.65 l=0.15
X99 GND.t1300 16to4_PriorityEncoder_v0p0p1_0.x43.Y OUT3.t57 GND.t1299 sky130_fd_pr__nfet_01v8 ad=0.0878 pd=0.92 as=0.0878 ps=0.92 w=0.65 l=0.15
X100 VDD.t327 I5.t6 a_77637_n49127# VDD.t326 sky130_fd_pr__pfet_01v8_hvt ad=0.167 pd=1.39 as=0.0567 ps=0.69 w=0.42 l=0.15
X101 GND.t61 16to4_PriorityEncoder_v0p0p1_0.x36.A 16to4_PriorityEncoder_v0p0p1_0.x36.Y GND.t60 sky130_fd_pr__nfet_01v8 ad=0.169 pd=1.82 as=0.0878 ps=0.92 w=0.65 l=0.15
X102 VDD.t344 16to4_PriorityEncoder_v0p0p1_0.x21.A 16to4_PriorityEncoder_v0p0p1_0.x22.A VDD.t343 sky130_fd_pr__pfet_01v8_hvt ad=0.135 pd=1.27 as=0.135 ps=1.27 w=1 l=0.15
X103 frontAnalog_v0p0p1_2.RSfetsym_0.x1.Y frontAnalog_v0p0p1_2.x63.X GND.t480 GND.t475 sky130_fd_pr__nfet_01v8 ad=0.0878 pd=0.92 as=0.169 ps=1.82 w=0.65 l=0.15
X104 VDD.t66 16to4_PriorityEncoder_v0p0p1_0.x36.A 16to4_PriorityEncoder_v0p0p1_0.x36.Y VDD.t65 sky130_fd_pr__pfet_01v8_hvt ad=0.135 pd=1.27 as=0.135 ps=1.27 w=1 l=0.15
X105 a_16541_n13117.t1 GND.t1487 GND.t657 sky130_fd_pr__res_xhigh_po_5p73 l=85.8
X106 I1.t3 frontAnalog_v0p0p1_14.RSfetsym_0.x2.Y GND.t602 GND.t594 sky130_fd_pr__nfet_01v8 ad=0.58 pd=4.58 as=0.58 ps=4.58 w=2 l=0.25
X107 GND.t325 frontAnalog_v0p0p1_9.x65.A.t4 a_57123_n51159# GND.t255 sky130_fd_pr__nfet_01v8 ad=0.0754 pd=0.81 as=0.135 ps=1.56 w=0.52 l=0.15
X108 VV3.t1 VV2.t1 GND.t79 sky130_fd_pr__res_xhigh_po_5p73 l=2.52
X109 VDD.t1358 I13.t6 a_77605_n45765# VDD.t804 sky130_fd_pr__pfet_01v8_hvt ad=0.0567 pd=0.69 as=0.109 ps=1.36 w=0.42 l=0.15
X110 a_77881_n52567# 16to4_PriorityEncoder_v0p0p1_0.x3.x18.C a_77775_n52567# GND.t67 sky130_fd_pr__nfet_01v8 ad=0.0693 pd=0.75 as=0.0798 ps=0.8 w=0.42 l=0.15
X111 16to4_PriorityEncoder_v0p0p1_0.x22.Y 16to4_PriorityEncoder_v0p0p1_0.x22.A GND.t1475 GND.t1474 sky130_fd_pr__nfet_01v8 ad=0.0878 pd=0.92 as=0.0878 ps=0.92 w=0.65 l=0.15
X112 frontAnalog_v0p0p1_9.x63.A.t0 frontAnalog_v0p0p1_9.x65.A.t5 a_55268_n52536# GND.t326 sky130_fd_pr__nfet_01v8_lvt ad=0.29 pd=2.58 as=0.29 ps=2.58 w=1 l=0.15
X113 OUT2.t123 16to4_PriorityEncoder_v0p0p1_0.x36.Y VDD.t957 VDD.t956 sky130_fd_pr__pfet_01v8_hvt ad=0.135 pd=1.27 as=0.26 ps=2.52 w=1 l=0.15
X114 OUT0.t124 16to4_PriorityEncoder_v0p0p1_0.x22.Y VDD.t208 VDD.t207 sky130_fd_pr__pfet_01v8_hvt ad=0.135 pd=1.27 as=0.135 ps=1.27 w=1 l=0.15
X115 VDD.t206 16to4_PriorityEncoder_v0p0p1_0.x22.Y OUT0.t123 VDD.t205 sky130_fd_pr__pfet_01v8_hvt ad=0.135 pd=1.27 as=0.135 ps=1.27 w=1 l=0.15
X116 I6.t1 frontAnalog_v0p0p1_9.RSfetsym_0.QN.t5 VDD.t250 VDD.t249 sky130_fd_pr__pfet_01v8 ad=0.58 pd=4.58 as=0.58 ps=4.58 w=2 l=0.3
X117 frontAnalog_v0p0p1_6.RSfetsym_0.x2.Y frontAnalog_v0p0p1_6.x65.X VDD.t390 VDD.t385 sky130_fd_pr__pfet_01v8_hvt ad=0.135 pd=1.27 as=0.135 ps=1.27 w=1 l=0.15
X118 GND.t358 16to4_PriorityEncoder_v0p0p1_0.x43.A 16to4_PriorityEncoder_v0p0p1_0.x43.Y GND.t357 sky130_fd_pr__nfet_01v8 ad=0.0878 pd=0.92 as=0.0878 ps=0.92 w=0.65 l=0.15
X119 GND.t840 16to4_PriorityEncoder_v0p0p1_0.x29.Y OUT1.t60 GND.t839 sky130_fd_pr__nfet_01v8 ad=0.0878 pd=0.92 as=0.0878 ps=0.92 w=0.65 l=0.15
X120 OUT2.t122 16to4_PriorityEncoder_v0p0p1_0.x36.Y VDD.t955 VDD.t954 sky130_fd_pr__pfet_01v8_hvt ad=0.135 pd=1.27 as=0.135 ps=1.27 w=1 l=0.15
X121 frontAnalog_v0p0p1_3.RSfetsym_0.x2.Y frontAnalog_v0p0p1_3.x65.X GND.t879 GND.t878 sky130_fd_pr__nfet_01v8 ad=0.0878 pd=0.92 as=0.169 ps=1.82 w=0.65 l=0.15
X122 a_77639_n42341# VDD.t809 VDD.t811 VDD.t810 sky130_fd_pr__pfet_01v8_hvt ad=0.0567 pd=0.69 as=0.118 ps=1.4 w=0.42 l=0.15
X123 frontAnalog_v0p0p1_13.RSfetsym_0.x1.Y frontAnalog_v0p0p1_13.x63.X GND.t1114 GND.t1110 sky130_fd_pr__nfet_01v8 ad=0.0878 pd=0.92 as=0.169 ps=1.82 w=0.65 l=0.15
X124 a_59577_n57483# frontAnalog_v0p0p1_10.x63.X I5.t2 GND.t530 sky130_fd_pr__nfet_01v8 ad=0.29 pd=2.58 as=0.29 ps=2.58 w=1 l=0.15
X125 a_59578_n67770# frontAnalog_v0p0p1_13.x65.X frontAnalog_v0p0p1_13.RSfetsym_0.QN.t2 GND.t1503 sky130_fd_pr__nfet_01v8 ad=0.29 pd=2.58 as=0.315 ps=2.72 w=1 l=0.15
X126 a_77687_n45765# I13.t7 a_77605_n45765# GND.t1426 sky130_fd_pr__nfet_01v8 ad=0.0441 pd=0.63 as=0.109 ps=1.36 w=0.42 l=0.15
X127 16to4_PriorityEncoder_v0p0p1_0.x42.A 16to4_PriorityEncoder_v0p0p1_0.x5.GS VDD.t1483 VDD.t1482 sky130_fd_pr__pfet_01v8_hvt ad=0.26 pd=2.52 as=0.26 ps=2.52 w=1 l=0.15
X128 16to4_PriorityEncoder_v0p0p1_0.x3.x19.X a_77605_n52819# VDD.t638 VDD.t637 sky130_fd_pr__pfet_01v8_hvt ad=0.26 pd=2.52 as=0.312 ps=1.68 w=1 l=0.15
X129 VV2.t10 VV1.t7 GND.t417 sky130_fd_pr__res_xhigh_po_5p73 l=2.52
X130 VDD.t953 16to4_PriorityEncoder_v0p0p1_0.x36.Y OUT2.t121 VDD.t952 sky130_fd_pr__pfet_01v8_hvt ad=0.135 pd=1.27 as=0.135 ps=1.27 w=1 l=0.15
X131 OUT1.t59 16to4_PriorityEncoder_v0p0p1_0.x29.Y GND.t838 GND.t837 sky130_fd_pr__nfet_01v8 ad=0.0878 pd=0.92 as=0.0878 ps=0.92 w=0.65 l=0.15
X132 frontAnalog_v0p0p1_7.x63.A.t1 frontAnalog_v0p0p1_7.x65.A.t4 VDD.t1378 VDD.t419 sky130_fd_pr__pfet_01v8_lvt ad=1.16 pd=8.58 as=1.16 ps=8.58 w=4 l=0.35
X133 I9.t3 frontAnalog_v0p0p1_7.RSfetsym_0.x2.Y GND.t707 GND.t473 sky130_fd_pr__nfet_01v8 ad=0.58 pd=4.58 as=0.58 ps=4.58 w=2 l=0.25
X134 VV7.t16 w_55000_n52150# error sky130_fd_pr__cap_var_lvt w=2 l=0.18
X135 a_16719_n13117.t22 a_16599_n13205.t5 a_16541_n13117.t6 GND.t1568 sky130_fd_pr__nfet_01v8_lvt ad=1.16 pd=8.58 as=1.16 ps=8.58 w=4 l=0.6
X136 16to4_PriorityEncoder_v0p0p1_0.x5.x11.X a_77637_n41087# GND.t717 GND.t579 sky130_fd_pr__nfet_01v8 ad=0.182 pd=1.86 as=0.112 ps=1.04 w=0.65 l=0.15
X137 OUT0.t58 16to4_PriorityEncoder_v0p0p1_0.x22.Y GND.t198 GND.t197 sky130_fd_pr__nfet_01v8 ad=0.0878 pd=0.92 as=0.0878 ps=0.92 w=0.65 l=0.15
X138 GND.t1014 16to4_PriorityEncoder_v0p0p1_0.x3.x14.A a_78065_n49349# GND.t1013 sky130_fd_pr__nfet_01v8 ad=0.102 pd=0.99 as=0.0567 ps=0.69 w=0.42 l=0.15
X139 a_78703_n45515# 16to4_PriorityEncoder_v0p0p1_0.x5.x19.X a_78607_n45515# VDD.t457 sky130_fd_pr__pfet_01v8_hvt ad=0.0441 pd=0.63 as=0.0693 ps=0.75 w=0.42 l=0.15
X140 frontAnalog_v0p0p1_2.x65.X a_57123_n2559# GND.t1148 GND.t1147 sky130_fd_pr__nfet_01v8 ad=0.135 pd=1.56 as=0.0754 ps=0.81 w=0.52 l=0.15
X141 16to4_PriorityEncoder_v0p0p1_0.x22.Y 16to4_PriorityEncoder_v0p0p1_0.x22.A VDD.t1416 VDD.t1415 sky130_fd_pr__pfet_01v8_hvt ad=0.135 pd=1.27 as=0.135 ps=1.27 w=1 l=0.15
X142 a_16719_n13117.t3 a_16719_n13117.t2 a_16599_n13205.t0 GND.t1072 sky130_fd_pr__nfet_01v8_lvt ad=0.122 pd=1.42 as=0.122 ps=1.42 w=0.42 l=0.15
X143 VV6.t2 VV5.t4 GND.t21 sky130_fd_pr__res_xhigh_po_5p73 l=2.52
X144 VDD.t1263 frontAnalog_v0p0p1_8.x65.X frontAnalog_v0p0p1_8.RSfetsym_0.x2.Y VDD.t1256 sky130_fd_pr__pfet_01v8_hvt ad=0.135 pd=1.27 as=0.135 ps=1.27 w=1 l=0.15
X145 GND.t1298 16to4_PriorityEncoder_v0p0p1_0.x43.Y OUT3.t56 GND.t1297 sky130_fd_pr__nfet_01v8 ad=0.0878 pd=0.92 as=0.0878 ps=0.92 w=0.65 l=0.15
X146 GND.t1473 16to4_PriorityEncoder_v0p0p1_0.x22.A 16to4_PriorityEncoder_v0p0p1_0.x22.Y GND.t1472 sky130_fd_pr__nfet_01v8 ad=0.0878 pd=0.92 as=0.0878 ps=0.92 w=0.65 l=0.15
X147 VDD.t951 16to4_PriorityEncoder_v0p0p1_0.x36.Y OUT2.t120 VDD.t950 sky130_fd_pr__pfet_01v8_hvt ad=0.135 pd=1.27 as=0.135 ps=1.27 w=1 l=0.15
X148 VDD.t1068 frontAnalog_v0p0p1_13.x63.A.t4 a_57123_n68879# VDD.t1067 sky130_fd_pr__pfet_01v8_hvt ad=0.115 pd=1.08 as=0.205 ps=2.1 w=0.79 l=0.15
X149 a_59577_n14283# frontAnalog_v0p0p1_3.x63.X I13.t4 GND.t1513 sky130_fd_pr__nfet_01v8 ad=0.29 pd=2.58 as=0.29 ps=2.58 w=1 l=0.15
X150 a_59578_n24570# frontAnalog_v0p0p1_5.x65.X frontAnalog_v0p0p1_5.RSfetsym_0.QN.t2 GND.t470 sky130_fd_pr__nfet_01v8 ad=0.29 pd=2.58 as=0.315 ps=2.72 w=1 l=0.15
X151 16to4_PriorityEncoder_v0p0p1_0.x29.Y 16to4_PriorityEncoder_v0p0p1_0.x29.A GND.t237 GND.t236 sky130_fd_pr__nfet_01v8 ad=0.0878 pd=0.92 as=0.0878 ps=0.92 w=0.65 l=0.15
X152 VV7.t5 VV6.t6 GND.t250 sky130_fd_pr__res_xhigh_po_5p73 l=2.52
X153 I6.t3 frontAnalog_v0p0p1_9.x63.X VDD.t1339 VDD.t1336 sky130_fd_pr__pfet_01v8 ad=0.29 pd=2.29 as=0.58 ps=4.58 w=2 l=0.25
X154 a_53630_n63396# frontAnalog_v0p0p1_10.IB.t4 GND.t1018 GND.t296 sky130_fd_pr__nfet_01v8_lvt ad=1.16 pd=8.58 as=1.16 ps=8.58 w=4 l=0.6
X155 16to4_PriorityEncoder_v0p0p1_0.x5.x22.A a_77639_n42341# VDD.t566 VDD.t565 sky130_fd_pr__pfet_01v8_hvt ad=0.475 pd=2.95 as=0.167 ps=1.39 w=1 l=0.15
X156 frontAnalog_v0p0p1_0.RSfetsym_0.x1.Y frontAnalog_v0p0p1_0.x63.X GND.t75 GND.t71 sky130_fd_pr__nfet_01v8 ad=0.0878 pd=0.92 as=0.0878 ps=0.92 w=0.65 l=0.15
X157 16to4_PriorityEncoder_v0p0p1_0.x43.Y 16to4_PriorityEncoder_v0p0p1_0.x43.A GND.t356 GND.t355 sky130_fd_pr__nfet_01v8 ad=0.0878 pd=0.92 as=0.0878 ps=0.92 w=0.65 l=0.15
X158 VDD.t267 frontAnalog_v0p0p1_10.x63.A.t4 frontAnalog_v0p0p1_10.x65.A.t0 VDD.t266 sky130_fd_pr__pfet_01v8_lvt ad=1.16 pd=8.58 as=1.16 ps=8.58 w=4 l=0.35
X159 OUT2.t59 16to4_PriorityEncoder_v0p0p1_0.x36.Y GND.t1004 GND.t1003 sky130_fd_pr__nfet_01v8 ad=0.0878 pd=0.92 as=0.169 ps=1.82 w=0.65 l=0.15
X160 frontAnalog_v0p0p1_0.RSfetsym_0.x2.Y frontAnalog_v0p0p1_0.x65.X GND.t1342 GND.t1341 sky130_fd_pr__nfet_01v8 ad=0.0878 pd=0.92 as=0.169 ps=1.82 w=0.65 l=0.15
X161 OUT1.t126 16to4_PriorityEncoder_v0p0p1_0.x29.Y VDD.t777 VDD.t776 sky130_fd_pr__pfet_01v8_hvt ad=0.135 pd=1.27 as=0.135 ps=1.27 w=1 l=0.15
X162 w_55000_n8950# VIN.t3 a_53630_n9396# GND.t282 sky130_fd_pr__nfet_01v8_lvt ad=1.16 pd=8.58 as=1.16 ps=8.58 w=4 l=0.6
X163 VDD.t329 I5.t7 a_77605_n53805# VDD.t328 sky130_fd_pr__pfet_01v8_hvt ad=0.0567 pd=0.69 as=0.109 ps=1.36 w=0.42 l=0.15
X164 frontAnalog_v0p0p1_12.x65.X a_57123_n72759# GND.t1534 GND.t1533 sky130_fd_pr__nfet_01v8 ad=0.135 pd=1.56 as=0.0754 ps=0.81 w=0.52 l=0.15
X165 VDD.t775 16to4_PriorityEncoder_v0p0p1_0.x29.Y OUT1.t125 VDD.t774 sky130_fd_pr__pfet_01v8_hvt ad=0.135 pd=1.27 as=0.135 ps=1.27 w=1 l=0.15
X166 OUT0.t122 16to4_PriorityEncoder_v0p0p1_0.x22.Y VDD.t204 VDD.t203 sky130_fd_pr__pfet_01v8_hvt ad=0.135 pd=1.27 as=0.135 ps=1.27 w=1 l=0.15
X167 frontAnalog_v0p0p1_4.RSfetsym_0.x2.Y frontAnalog_v0p0p1_4.x65.X GND.t1486 GND.t1485 sky130_fd_pr__nfet_01v8 ad=0.0878 pd=0.92 as=0.0878 ps=0.92 w=0.65 l=0.15
X168 GND.t1296 16to4_PriorityEncoder_v0p0p1_0.x43.Y OUT3.t55 GND.t1295 sky130_fd_pr__nfet_01v8 ad=0.0878 pd=0.92 as=0.0878 ps=0.92 w=0.65 l=0.15
X169 VDD.t367 frontAnalog_v0p0p1_5.x63.A.t4 a_57123_n25679# VDD.t366 sky130_fd_pr__pfet_01v8_hvt ad=0.115 pd=1.08 as=0.205 ps=2.1 w=0.79 l=0.15
X170 GND.t196 16to4_PriorityEncoder_v0p0p1_0.x22.Y OUT0.t57 GND.t195 sky130_fd_pr__nfet_01v8 ad=0.0878 pd=0.92 as=0.0878 ps=0.92 w=0.65 l=0.15
X171 a_53630_n20196# frontAnalog_v0p0p1_10.IB.t5 GND.t1019 GND.t296 sky130_fd_pr__nfet_01v8_lvt ad=1.16 pd=8.58 as=1.16 ps=8.58 w=4 l=0.6
X172 a_77639_n50381# 16to4_PriorityEncoder_v0p0p1_0.x3.EI VDD.t359 VDD.t358 sky130_fd_pr__pfet_01v8_hvt ad=0.0567 pd=0.69 as=0.118 ps=1.4 w=0.42 l=0.15
X173 VDD.t64 16to4_PriorityEncoder_v0p0p1_0.x36.A 16to4_PriorityEncoder_v0p0p1_0.x36.Y VDD.t63 sky130_fd_pr__pfet_01v8_hvt ad=0.135 pd=1.27 as=0.135 ps=1.27 w=1 l=0.15
X174 VDD.t1414 16to4_PriorityEncoder_v0p0p1_0.x22.A 16to4_PriorityEncoder_v0p0p1_0.x22.Y VDD.t1413 sky130_fd_pr__pfet_01v8_hvt ad=0.135 pd=1.27 as=0.135 ps=1.27 w=1 l=0.15
X175 VDD.t1016 frontAnalog_v0p0p1_3.x63.A.t4 frontAnalog_v0p0p1_3.x65.A.t0 VDD.t521 sky130_fd_pr__pfet_01v8_lvt ad=1.16 pd=8.58 as=1.16 ps=8.58 w=4 l=0.35
X176 OUT3.t54 16to4_PriorityEncoder_v0p0p1_0.x43.Y GND.t1294 GND.t1293 sky130_fd_pr__nfet_01v8 ad=0.0878 pd=0.92 as=0.0878 ps=0.92 w=0.65 l=0.15
X177 VDD.t406 frontAnalog_v0p0p1_15.x65.A.t4 a_57123_n83559# VDD.t405 sky130_fd_pr__pfet_01v8_hvt ad=0.115 pd=1.08 as=0.205 ps=2.1 w=0.79 l=0.15
X178 GND.t863 frontAnalog_v0p0p1_14.x63.A.t5 a_57123_n79679# GND.t862 sky130_fd_pr__nfet_01v8 ad=0.0754 pd=0.81 as=0.135 ps=1.56 w=0.52 l=0.15
X179 a_55268_n47136# CLK.t3 GND.t1146 GND.t1145 sky130_fd_pr__nfet_01v8_lvt ad=0.29 pd=2.58 as=0.29 ps=2.58 w=1 l=0.15
X180 frontAnalog_v0p0p1_1.RSfetsym_0.x2.Y frontAnalog_v0p0p1_1.x65.X GND.t520 GND.t519 sky130_fd_pr__nfet_01v8 ad=0.0878 pd=0.92 as=0.0878 ps=0.92 w=0.65 l=0.15
X181 VDD.t376 frontAnalog_v0p0p1_12.x65.X frontAnalog_v0p0p1_12.RSfetsym_0.x2.Y VDD.t372 sky130_fd_pr__pfet_01v8_hvt ad=0.26 pd=2.52 as=0.135 ps=1.27 w=1 l=0.15
X182 GND.t668 16to4_PriorityEncoder_v0p0p1_0.x3.x15.X a_78349_n51085# GND.t505 sky130_fd_pr__nfet_01v8 ad=0.0567 pd=0.69 as=0.0693 ps=0.75 w=0.42 l=0.15
X183 frontAnalog_v0p0p1_4.x65.A.t2 frontAnalog_v0p0p1_4.x63.A.t4 a_55268_n20136# GND.t1390 sky130_fd_pr__nfet_01v8_lvt ad=0.29 pd=2.58 as=0.29 ps=2.58 w=1 l=0.15
X184 frontAnalog_v0p0p1_9.RSfetsym_0.QN.t4 I6.t5 VDD.t1477 VDD.t249 sky130_fd_pr__pfet_01v8 ad=0.58 pd=4.58 as=0.58 ps=4.58 w=2 l=0.3
X185 OUT3.t121 16to4_PriorityEncoder_v0p0p1_0.x43.Y VDD.t1239 VDD.t1238 sky130_fd_pr__pfet_01v8_hvt ad=0.135 pd=1.27 as=0.135 ps=1.27 w=1 l=0.15
X186 VV10.t8 VV9.t10 GND.t417 sky130_fd_pr__res_xhigh_po_5p73 l=2.52
X187 a_78703_n53555# 16to4_PriorityEncoder_v0p0p1_0.x3.x19.X a_78607_n53555# VDD.t1066 sky130_fd_pr__pfet_01v8_hvt ad=0.0441 pd=0.63 as=0.0693 ps=0.75 w=0.42 l=0.15
X188 GND.t194 16to4_PriorityEncoder_v0p0p1_0.x22.Y OUT0.t56 GND.t193 sky130_fd_pr__nfet_01v8 ad=0.0878 pd=0.92 as=0.0878 ps=0.92 w=0.65 l=0.15
X189 OUT1.t58 16to4_PriorityEncoder_v0p0p1_0.x29.Y GND.t836 GND.t835 sky130_fd_pr__nfet_01v8 ad=0.0878 pd=0.92 as=0.0878 ps=0.92 w=0.65 l=0.15
X190 VV12.t5 VV11.t5 GND.t257 sky130_fd_pr__res_xhigh_po_5p73 l=2.52
X191 VV3.t6 VV2.t6 GND.t589 sky130_fd_pr__res_xhigh_po_5p73 l=2.52
X192 a_77775_n51335# 16to4_PriorityEncoder_v0p0p1_0.x3.x19.C a_77687_n51335# GND.t69 sky130_fd_pr__nfet_01v8 ad=0.0798 pd=0.8 as=0.0609 ps=0.71 w=0.42 l=0.15
X193 16to4_PriorityEncoder_v0p0p1_0.x43.A 16to4_PriorityEncoder_v0p0p1_0.x42.A VDD.t1279 VDD.t1278 sky130_fd_pr__pfet_01v8_hvt ad=0.135 pd=1.27 as=0.26 ps=2.52 w=1 l=0.15
X194 a_53630_n25596# VV12.t16 w_55000_n24528# GND.t317 sky130_fd_pr__nfet_01v8_lvt ad=1.16 pd=8.58 as=1.16 ps=8.58 w=4 l=0.6
X195 VV13.t7 VV12.t7 GND.t417 sky130_fd_pr__res_xhigh_po_5p73 l=2.52
X196 OUT3.t53 16to4_PriorityEncoder_v0p0p1_0.x43.Y GND.t1292 GND.t1291 sky130_fd_pr__nfet_01v8 ad=0.0878 pd=0.92 as=0.0878 ps=0.92 w=0.65 l=0.15
X197 16to4_PriorityEncoder_v0p0p1_0.x28.A 16to4_PriorityEncoder_v0p0p1_0.x1.X GND.t403 GND.t402 sky130_fd_pr__nfet_01v8 ad=0.169 pd=1.82 as=0.169 ps=1.82 w=0.65 l=0.15
X198 VDD.t202 16to4_PriorityEncoder_v0p0p1_0.x22.Y OUT0.t121 VDD.t201 sky130_fd_pr__pfet_01v8_hvt ad=0.135 pd=1.27 as=0.135 ps=1.27 w=1 l=0.15
X199 VDD.t949 16to4_PriorityEncoder_v0p0p1_0.x36.Y OUT2.t119 VDD.t948 sky130_fd_pr__pfet_01v8_hvt ad=0.135 pd=1.27 as=0.135 ps=1.27 w=1 l=0.15
X200 frontAnalog_v0p0p1_9.RSfetsym_0.x2.Y frontAnalog_v0p0p1_9.x65.X VDD.t1373 VDD.t1368 sky130_fd_pr__pfet_01v8_hvt ad=0.135 pd=1.27 as=0.26 ps=2.52 w=1 l=0.15
X201 VDD.t1354 frontAnalog_v0p0p1_1.x65.A.t4 a_57123_n40359# VDD.t1353 sky130_fd_pr__pfet_01v8_hvt ad=0.115 pd=1.08 as=0.205 ps=2.1 w=0.79 l=0.15
X202 GND.t1157 frontAnalog_v0p0p1_7.x63.A.t4 a_57123_n36479# GND.t1156 sky130_fd_pr__nfet_01v8 ad=0.0754 pd=0.81 as=0.135 ps=1.56 w=0.52 l=0.15
X203 frontAnalog_v0p0p1_10.RSfetsym_0.QN.t4 frontAnalog_v0p0p1_10.x65.X VDD.t1118 VDD.t1114 sky130_fd_pr__pfet_01v8 ad=0.29 pd=2.29 as=0.58 ps=4.58 w=2 l=0.25
X204 frontAnalog_v0p0p1_9.RSfetsym_0.x1.Y frontAnalog_v0p0p1_9.x63.X GND.t1403 GND.t1398 sky130_fd_pr__nfet_01v8 ad=0.0878 pd=0.92 as=0.0878 ps=0.92 w=0.65 l=0.15
X205 VDD.t389 frontAnalog_v0p0p1_6.x65.X frontAnalog_v0p0p1_6.RSfetsym_0.x2.Y VDD.t385 sky130_fd_pr__pfet_01v8_hvt ad=0.26 pd=2.52 as=0.135 ps=1.27 w=1 l=0.15
X206 16to4_PriorityEncoder_v0p0p1_0.x36.Y 16to4_PriorityEncoder_v0p0p1_0.x36.A VDD.t62 VDD.t61 sky130_fd_pr__pfet_01v8_hvt ad=0.135 pd=1.27 as=0.135 ps=1.27 w=1 l=0.15
X207 VDD.t1347 I4.t5 a_77637_n48817# VDD.t1346 sky130_fd_pr__pfet_01v8_hvt ad=0.167 pd=1.39 as=0.0567 ps=0.69 w=0.42 l=0.15
X208 VDD.t773 16to4_PriorityEncoder_v0p0p1_0.x29.Y OUT1.t124 VDD.t772 sky130_fd_pr__pfet_01v8_hvt ad=0.26 pd=2.52 as=0.135 ps=1.27 w=1 l=0.15
X209 VDD.t1440 frontAnalog_v0p0p1_13.x65.X frontAnalog_v0p0p1_13.RSfetsym_0.QN.t4 VDD.t1436 sky130_fd_pr__pfet_01v8 ad=0.58 pd=4.58 as=0.29 ps=2.29 w=2 l=0.25
X210 GND.t192 16to4_PriorityEncoder_v0p0p1_0.x22.Y OUT0.t55 GND.t191 sky130_fd_pr__nfet_01v8 ad=0.0878 pd=0.92 as=0.0878 ps=0.92 w=0.65 l=0.15
X211 VDD.t200 16to4_PriorityEncoder_v0p0p1_0.x22.Y OUT0.t120 VDD.t199 sky130_fd_pr__pfet_01v8_hvt ad=0.135 pd=1.27 as=0.135 ps=1.27 w=1 l=0.15