* NGSPICE file created from flashADC_flat.ext - technology: sky130A

.subckt flashADC_flat VL VV11 VV12 VV15 S0 S1 I0 VV16 I3 VV6 VV8 VV10 I13 VV14 I5
+ VV3 I4 VV9 I11 VV4 VV1 I10 I1 I2 I6 OUT3 OUT2 VV7 IB VV2 I12 I9 R1 OUT1 VFS I14
+ VV5 VV13 I8 OUT0 R0 CLK I15 VIN GND VDD I7
X0 GND.t1311 frontAnalog_v0p0p1_7.x65.X frontAnalog_v0p0p1_7.RSfetsym_0.x2.Y GND.t1310 sky130_fd_pr__nfet_01v8 ad=0.169 pd=1.82 as=0.0878 ps=0.92 w=0.65 l=0.15
X1 OUT3.t127 16to4_PriorityEncoder_v0p0p1_0.x43.Y VDD.t464 VDD.t463 sky130_fd_pr__pfet_01v8_hvt ad=0.135 pd=1.27 as=0.135 ps=1.27 w=1 l=0.15
X2 VDD.t703 R0.t4 a_57123_n85079# VDD.t702 sky130_fd_pr__pfet_01v8_hvt ad=0.115 pd=1.08 as=0.205 ps=2.1 w=0.79 l=0.15
X3 GND.t632 16to4_PriorityEncoder_v0p0p1_0.x22.Y OUT0.t63 GND.t631 sky130_fd_pr__nfet_01v8 ad=0.0878 pd=0.92 as=0.0878 ps=0.92 w=0.65 l=0.15
X4 VDD.t757 frontAnalog_v0p0p1_10.x63.X I5.t1 VDD.t752 sky130_fd_pr__pfet_01v8 ad=0.58 pd=4.58 as=0.29 ps=2.29 w=2 l=0.25
X5 VDD.t950 16to4_PriorityEncoder_v0p0p1_0.x36.Y OUT2.t127 VDD.t949 sky130_fd_pr__pfet_01v8_hvt ad=0.135 pd=1.27 as=0.135 ps=1.27 w=1 l=0.15
X6 VFS.t4 VV16.t7 GND.t760 sky130_fd_pr__res_xhigh_po_5p73 l=2.52
X7 a_78315_n41309# 16to4_PriorityEncoder_v0p0p1_0.x5.x11.X a_78243_n41309# VDD.t656 sky130_fd_pr__pfet_01v8_hvt ad=0.0693 pd=0.75 as=0.0441 ps=0.63 w=0.42 l=0.15
X8 a_16719_n13117.t19 a_16599_n13205.t4 a_16541_n13117.t10 GND.t1420 sky130_fd_pr__nfet_01v8_lvt ad=1.16 pd=8.58 as=1.16 ps=8.58 w=4 l=0.6
X9 w_55000_n56928# CLK.t0 frontAnalog_v0p0p1_10.x65.A.t3 VDD.t661 sky130_fd_pr__pfet_01v8_lvt ad=1.16 pd=8.58 as=1.16 ps=8.58 w=4 l=0.35
X10 VV4.t9 VV3.t8 GND.t359 sky130_fd_pr__res_xhigh_po_5p73 l=2.52
X11 frontAnalog_v0p0p1_3.x65.X a_57123_n13359# VDD.t1179 VDD.t1178 sky130_fd_pr__pfet_01v8_hvt ad=0.205 pd=2.1 as=0.115 ps=1.08 w=0.79 l=0.15
X12 VDD.t199 frontAnalog_v0p0p1_9.x63.X frontAnalog_v0p0p1_9.RSfetsym_0.x1.Y VDD.t192 sky130_fd_pr__pfet_01v8_hvt ad=0.135 pd=1.27 as=0.135 ps=1.27 w=1 l=0.15
X13 OUT3.t63 16to4_PriorityEncoder_v0p0p1_0.x43.Y GND.t504 GND.t503 sky130_fd_pr__nfet_01v8 ad=0.0878 pd=0.92 as=0.0878 ps=0.92 w=0.65 l=0.15
X14 S1.t1 R1.t4 a_55268_n79536# GND.t1570 sky130_fd_pr__nfet_01v8_lvt ad=0.29 pd=2.58 as=0.29 ps=2.58 w=1 l=0.15
X15 OUT2.t63 16to4_PriorityEncoder_v0p0p1_0.x36.Y GND.t1009 GND.t1008 sky130_fd_pr__nfet_01v8 ad=0.0878 pd=0.92 as=0.0878 ps=0.92 w=0.65 l=0.15
X16 frontAnalog_v0p0p1_5.RSfetsym_0.QN.t4 frontAnalog_v0p0p1_5.RSfetsym_0.x1.Y GND.t1232 GND.t1231 sky130_fd_pr__nfet_01v8 ad=0.58 pd=4.58 as=0.58 ps=4.58 w=2 l=0.25
X17 16to4_PriorityEncoder_v0p0p1_0.x29.A 16to4_PriorityEncoder_v0p0p1_0.x28.A VDD.t310 VDD.t309 sky130_fd_pr__pfet_01v8_hvt ad=0.135 pd=1.27 as=0.26 ps=2.52 w=1 l=0.15
X18 VV11.t0 VV10.t0 GND.t34 sky130_fd_pr__res_xhigh_po_5p73 l=2.52
X19 frontAnalog_v0p0p1_6.x63.X a_57123_n31079# GND.t293 GND.t292 sky130_fd_pr__nfet_01v8 ad=0.135 pd=1.56 as=0.0754 ps=0.81 w=0.52 l=0.15
X20 GND.t502 16to4_PriorityEncoder_v0p0p1_0.x43.Y OUT3.t62 GND.t501 sky130_fd_pr__nfet_01v8 ad=0.0878 pd=0.92 as=0.0878 ps=0.92 w=0.65 l=0.15
X21 GND.t1361 frontAnalog_v0p0p1_8.x63.X frontAnalog_v0p0p1_8.RSfetsym_0.x1.Y GND.t1356 sky130_fd_pr__nfet_01v8 ad=0.169 pd=1.82 as=0.0878 ps=0.92 w=0.65 l=0.15
X22 GND.t1007 16to4_PriorityEncoder_v0p0p1_0.x36.Y OUT2.t62 GND.t1006 sky130_fd_pr__nfet_01v8 ad=0.0878 pd=0.92 as=0.0878 ps=0.92 w=0.65 l=0.15
X23 OUT3.t126 16to4_PriorityEncoder_v0p0p1_0.x43.Y VDD.t462 VDD.t461 sky130_fd_pr__pfet_01v8_hvt ad=0.135 pd=1.27 as=0.135 ps=1.27 w=1 l=0.15
X24 VV2.t3 VV1.t3 GND.t209 sky130_fd_pr__res_xhigh_po_5p73 l=2.52
X25 a_53630_n84996# VV1.t16 w_55000_n83928# GND.t343 sky130_fd_pr__nfet_01v8_lvt ad=1.16 pd=8.58 as=1.16 ps=8.58 w=4 l=0.6
X26 16to4_PriorityEncoder_v0p0p1_0.x29.Y 16to4_PriorityEncoder_v0p0p1_0.x29.A GND.t1394 GND.t1393 sky130_fd_pr__nfet_01v8 ad=0.0878 pd=0.92 as=0.0878 ps=0.92 w=0.65 l=0.15
X27 GND.t785 I0.t5 a_77605_n47345# GND.t233 sky130_fd_pr__nfet_01v8 ad=0.102 pd=0.99 as=0.0567 ps=0.69 w=0.42 l=0.15
X28 VDD.t592 16to4_PriorityEncoder_v0p0p1_0.x22.Y OUT0.t127 VDD.t591 sky130_fd_pr__pfet_01v8_hvt ad=0.135 pd=1.27 as=0.135 ps=1.27 w=1 l=0.15
X29 VDD.t460 16to4_PriorityEncoder_v0p0p1_0.x43.Y OUT3.t125 VDD.t459 sky130_fd_pr__pfet_01v8_hvt ad=0.135 pd=1.27 as=0.135 ps=1.27 w=1 l=0.15
X30 a_55268_n63336# CLK.t1 GND.t716 GND.t715 sky130_fd_pr__nfet_01v8_lvt ad=0.29 pd=2.58 as=0.29 ps=2.58 w=1 l=0.15
X31 GND.t817 16to4_PriorityEncoder_v0p0p1_0.x5.x17.A a_78349_n43045# GND.t703 sky130_fd_pr__nfet_01v8 ad=0.102 pd=0.99 as=0.0567 ps=0.69 w=0.42 l=0.15
X32 frontAnalog_v0p0p1_14.RSfetsym_0.x1.Y frontAnalog_v0p0p1_14.x63.X VDD.t318 VDD.t311 sky130_fd_pr__pfet_01v8_hvt ad=0.135 pd=1.27 as=0.26 ps=2.52 w=1 l=0.15
X33 a_77605_n51335# I2.t5 VDD.t203 VDD.t202 sky130_fd_pr__pfet_01v8_hvt ad=0.0735 pd=0.77 as=0.109 ps=1.36 w=0.42 l=0.15
X34 frontAnalog_v0p0p1_5.RSfetsym_0.x1.Y frontAnalog_v0p0p1_5.x63.X GND.t186 GND.t182 sky130_fd_pr__nfet_01v8 ad=0.0878 pd=0.92 as=0.169 ps=1.82 w=0.65 l=0.15
X35 VDD.t756 frontAnalog_v0p0p1_10.x63.X frontAnalog_v0p0p1_10.RSfetsym_0.x1.Y VDD.t750 sky130_fd_pr__pfet_01v8_hvt ad=0.26 pd=2.52 as=0.135 ps=1.27 w=1 l=0.15
X36 VDD.t1209 VDD.t1207 a_77605_n43295# VDD.t1208 sky130_fd_pr__pfet_01v8_hvt ad=0.312 pd=1.68 as=0.0588 ps=0.7 w=0.42 l=0.15
X37 VDD.t164 16to4_PriorityEncoder_v0p0p1_0.x29.Y OUT1.t127 VDD.t163 sky130_fd_pr__pfet_01v8_hvt ad=0.135 pd=1.27 as=0.135 ps=1.27 w=1 l=0.15
X38 GND.t500 16to4_PriorityEncoder_v0p0p1_0.x43.Y OUT3.t61 GND.t499 sky130_fd_pr__nfet_01v8 ad=0.0878 pd=0.92 as=0.0878 ps=0.92 w=0.65 l=0.15
X39 GND.t1295 frontAnalog_v0p0p1_8.RSfetsym_0.QN.t5 a_59577_n46683# GND.t1294 sky130_fd_pr__nfet_01v8 ad=0.29 pd=2.58 as=0.29 ps=2.58 w=1 l=0.15
X40 GND.t1005 16to4_PriorityEncoder_v0p0p1_0.x36.Y OUT2.t61 GND.t1004 sky130_fd_pr__nfet_01v8 ad=0.0878 pd=0.92 as=0.0878 ps=0.92 w=0.65 l=0.15
X41 GND.t771 I5.t5 a_59578_n56970# GND.t770 sky130_fd_pr__nfet_01v8 ad=0.29 pd=2.58 as=0.29 ps=2.58 w=1 l=0.15
X42 a_53630_n41796# VV9.t16 w_55000_n40728# GND.t648 sky130_fd_pr__nfet_01v8_lvt ad=1.16 pd=8.58 as=1.16 ps=8.58 w=4 l=0.6
X43 VDD.t948 16to4_PriorityEncoder_v0p0p1_0.x36.Y OUT2.t126 VDD.t947 sky130_fd_pr__pfet_01v8_hvt ad=0.135 pd=1.27 as=0.135 ps=1.27 w=1 l=0.15
X44 VV16.t0 VV15.t0 GND.t9 sky130_fd_pr__res_xhigh_po_5p73 l=2.52
X45 OUT1.t63 16to4_PriorityEncoder_v0p0p1_0.x29.Y GND.t178 GND.t177 sky130_fd_pr__nfet_01v8 ad=0.0878 pd=0.92 as=0.0878 ps=0.92 w=0.65 l=0.15
X46 GND.t1107 frontAnalog_v0p0p1_12.x65.X frontAnalog_v0p0p1_12.RSfetsym_0.x2.Y GND.t1106 sky130_fd_pr__nfet_01v8 ad=0.0878 pd=0.92 as=0.0878 ps=0.92 w=0.65 l=0.15
X47 OUT2.t125 16to4_PriorityEncoder_v0p0p1_0.x36.Y VDD.t946 VDD.t945 sky130_fd_pr__pfet_01v8_hvt ad=0.135 pd=1.27 as=0.135 ps=1.27 w=1 l=0.15
X48 GND.t1392 16to4_PriorityEncoder_v0p0p1_0.x29.A 16to4_PriorityEncoder_v0p0p1_0.x29.Y GND.t1391 sky130_fd_pr__nfet_01v8 ad=0.0878 pd=0.92 as=0.0878 ps=0.92 w=0.65 l=0.15
X49 frontAnalog_v0p0p1_7.RSfetsym_0.x1.Y frontAnalog_v0p0p1_7.x63.X VDD.t33 VDD.t26 sky130_fd_pr__pfet_01v8_hvt ad=0.135 pd=1.27 as=0.26 ps=2.52 w=1 l=0.15
X50 OUT0.t62 16to4_PriorityEncoder_v0p0p1_0.x22.Y GND.t630 GND.t629 sky130_fd_pr__nfet_01v8 ad=0.0878 pd=0.92 as=0.0878 ps=0.92 w=0.65 l=0.15
X51 a_77637_n50057# 16to4_PriorityEncoder_v0p0p1_0.x3.EI VDD.t287 VDD.t286 sky130_fd_pr__pfet_01v8_hvt ad=0.0567 pd=0.69 as=0.118 ps=1.4 w=0.42 l=0.15
X52 frontAnalog_v0p0p1_2.x65.A.t2 frontAnalog_v0p0p1_2.x63.A.t4 a_55268_n3936# GND.t1397 sky130_fd_pr__nfet_01v8_lvt ad=0.29 pd=2.58 as=0.29 ps=2.58 w=1 l=0.15
X53 VDD.t25 frontAnalog_v0p0p1_15.x65.X frontAnalog_v0p0p1_15.RSfetsym_0.QN.t1 VDD.t21 sky130_fd_pr__pfet_01v8 ad=0.58 pd=4.58 as=0.29 ps=2.29 w=2 l=0.25
X54 GND.t498 16to4_PriorityEncoder_v0p0p1_0.x43.Y OUT3.t60 GND.t497 sky130_fd_pr__nfet_01v8 ad=0.0878 pd=0.92 as=0.0878 ps=0.92 w=0.65 l=0.15
X55 GND.t628 16to4_PriorityEncoder_v0p0p1_0.x22.Y OUT0.t61 GND.t627 sky130_fd_pr__nfet_01v8 ad=0.0878 pd=0.92 as=0.0878 ps=0.92 w=0.65 l=0.15
X56 a_82906_n51645# 16to4_PriorityEncoder_v0p0p1_0.x3.A0 GND.t328 GND.t327 sky130_fd_pr__nfet_01v8 ad=0.0567 pd=0.69 as=0.109 ps=1.36 w=0.42 l=0.15
X57 OUT3.t124 16to4_PriorityEncoder_v0p0p1_0.x43.Y VDD.t458 VDD.t457 sky130_fd_pr__pfet_01v8_hvt ad=0.135 pd=1.27 as=0.26 ps=2.52 w=1 l=0.15
X58 VV6.t11 VV5.t9 GND.t34 sky130_fd_pr__res_xhigh_po_5p73 l=2.52
X59 frontAnalog_v0p0p1_6.RSfetsym_0.QN.t1 I10.t5 VDD.t1089 VDD.t1088 sky130_fd_pr__pfet_01v8 ad=0.58 pd=4.58 as=0.58 ps=4.58 w=2 l=0.3
X60 a_77881_n44527# 16to4_PriorityEncoder_v0p0p1_0.x5.x18.C a_77775_n44527# GND.t809 sky130_fd_pr__nfet_01v8 ad=0.0693 pd=0.75 as=0.0798 ps=0.8 w=0.42 l=0.15
X61 GND.t668 I13.t5 a_59578_n13770# GND.t667 sky130_fd_pr__nfet_01v8 ad=0.29 pd=2.58 as=0.29 ps=2.58 w=1 l=0.15
X62 OUT3.t59 16to4_PriorityEncoder_v0p0p1_0.x43.Y GND.t496 GND.t495 sky130_fd_pr__nfet_01v8 ad=0.0878 pd=0.92 as=0.0878 ps=0.92 w=0.65 l=0.15
X63 16to4_PriorityEncoder_v0p0p1_0.x36.Y 16to4_PriorityEncoder_v0p0p1_0.x36.A GND.t1230 GND.t1229 sky130_fd_pr__nfet_01v8 ad=0.0878 pd=0.92 as=0.0878 ps=0.92 w=0.65 l=0.15
X64 a_53630_n9396# IB.t3 GND.t1401 GND.t193 sky130_fd_pr__nfet_01v8_lvt ad=1.16 pd=8.58 as=1.16 ps=8.58 w=4 l=0.6
X65 VDD.t456 16to4_PriorityEncoder_v0p0p1_0.x43.Y OUT3.t123 VDD.t455 sky130_fd_pr__pfet_01v8_hvt ad=0.135 pd=1.27 as=0.135 ps=1.27 w=1 l=0.15
X66 VDD.t1343 frontAnalog_v0p0p1_2.x63.A.t5 a_57123_n4079# VDD.t1342 sky130_fd_pr__pfet_01v8_hvt ad=0.115 pd=1.08 as=0.205 ps=2.1 w=0.79 l=0.15
X67 frontAnalog_v0p0p1_11.x63.X a_57123_n63479# VDD.t1158 VDD.t1157 sky130_fd_pr__pfet_01v8_hvt ad=0.205 pd=2.1 as=0.115 ps=1.08 w=0.79 l=0.15
X68 a_77723_n41087# VDD.t1502 a_77637_n41087# GND.t793 sky130_fd_pr__nfet_01v8 ad=0.0567 pd=0.69 as=0.118 ps=1.4 w=0.42 l=0.15
X69 VV14.t12 VV13.t10 GND.t34 sky130_fd_pr__res_xhigh_po_5p73 l=2.52
X70 GND.t1320 frontAnalog_v0p0p1_6.x65.X frontAnalog_v0p0p1_6.RSfetsym_0.x2.Y GND.t1319 sky130_fd_pr__nfet_01v8 ad=0.0878 pd=0.92 as=0.0878 ps=0.92 w=0.65 l=0.15
X71 GND.t1245 16to4_PriorityEncoder_v0p0p1_0.x21.A 16to4_PriorityEncoder_v0p0p1_0.x22.A GND.t1244 sky130_fd_pr__nfet_01v8 ad=0.0878 pd=0.92 as=0.0878 ps=0.92 w=0.65 l=0.15
X72 w_55000_n79150# VIN.t0 a_53630_n79596# GND.t1019 sky130_fd_pr__nfet_01v8_lvt ad=1.16 pd=8.58 as=1.16 ps=8.58 w=4 l=0.6
X73 GND.t257 frontAnalog_v0p0p1_15.x63.X frontAnalog_v0p0p1_15.RSfetsym_0.x1.Y GND.t252 sky130_fd_pr__nfet_01v8 ad=0.0878 pd=0.92 as=0.0878 ps=0.92 w=0.65 l=0.15
X74 VIN.t1 w_55000_n51528# error sky130_fd_pr__cap_var_lvt w=2 l=0.18
X75 GND.t176 16to4_PriorityEncoder_v0p0p1_0.x29.Y OUT1.t62 GND.t175 sky130_fd_pr__nfet_01v8 ad=0.0878 pd=0.92 as=0.0878 ps=0.92 w=0.65 l=0.15
X76 16to4_PriorityEncoder_v0p0p1_0.x5.x19.X a_77605_n44779# VDD.t1299 VDD.t1298 sky130_fd_pr__pfet_01v8_hvt ad=0.26 pd=2.52 as=0.312 ps=1.68 w=1 l=0.15
X77 OUT2.t124 16to4_PriorityEncoder_v0p0p1_0.x36.Y VDD.t944 VDD.t943 sky130_fd_pr__pfet_01v8_hvt ad=0.135 pd=1.27 as=0.135 ps=1.27 w=1 l=0.15
X78 VV4.t1 VV3.t2 GND.t50 sky130_fd_pr__res_xhigh_po_5p73 l=2.52
X79 16to4_PriorityEncoder_v0p0p1_0.x43.Y 16to4_PriorityEncoder_v0p0p1_0.x43.A VDD.t1073 VDD.t1072 sky130_fd_pr__pfet_01v8_hvt ad=0.135 pd=1.27 as=0.135 ps=1.27 w=1 l=0.15
X80 VDD.t647 frontAnalog_v0p0p1_4.x65.A.t4 a_57123_n18759# VDD.t646 sky130_fd_pr__pfet_01v8_hvt ad=0.115 pd=1.08 as=0.205 ps=2.1 w=0.79 l=0.15
X81 VV10.t1 VV9.t1 GND.t209 sky130_fd_pr__res_xhigh_po_5p73 l=2.52
X82 OUT0.t126 16to4_PriorityEncoder_v0p0p1_0.x22.Y VDD.t590 VDD.t589 sky130_fd_pr__pfet_01v8_hvt ad=0.135 pd=1.27 as=0.135 ps=1.27 w=1 l=0.15
X83 a_78065_n41309# 16to4_PriorityEncoder_v0p0p1_0.x5.x22.A GND.t708 GND.t707 sky130_fd_pr__nfet_01v8 ad=0.0693 pd=0.75 as=0.109 ps=1.36 w=0.42 l=0.15
X84 OUT0.t60 16to4_PriorityEncoder_v0p0p1_0.x22.Y GND.t626 GND.t625 sky130_fd_pr__nfet_01v8 ad=0.0878 pd=0.92 as=0.0878 ps=0.92 w=0.65 l=0.15
X85 GND.t624 16to4_PriorityEncoder_v0p0p1_0.x22.Y OUT0.t59 GND.t623 sky130_fd_pr__nfet_01v8 ad=0.0878 pd=0.92 as=0.0878 ps=0.92 w=0.65 l=0.15
X86 VV3.t9 VV2.t10 GND.t1321 sky130_fd_pr__res_xhigh_po_5p73 l=2.52
X87 VDD.t285 16to4_PriorityEncoder_v0p0p1_0.x3.EI a_77605_n51335# VDD.t284 sky130_fd_pr__pfet_01v8_hvt ad=0.312 pd=1.68 as=0.0588 ps=0.7 w=0.42 l=0.15
X88 VV13.t6 VV12.t6 GND.t209 sky130_fd_pr__res_xhigh_po_5p73 l=2.52
X89 VDD.t588 16to4_PriorityEncoder_v0p0p1_0.x22.Y OUT0.t125 VDD.t587 sky130_fd_pr__pfet_01v8_hvt ad=0.135 pd=1.27 as=0.135 ps=1.27 w=1 l=0.15
X90 OUT3.t58 16to4_PriorityEncoder_v0p0p1_0.x43.Y GND.t494 GND.t493 sky130_fd_pr__nfet_01v8 ad=0.0878 pd=0.92 as=0.0878 ps=0.92 w=0.65 l=0.15
X91 frontAnalog_v0p0p1_9.x65.A.t2 CLK.t2 frontAnalog_v0p0p1_9.x63.A.t1 VDD.t662 sky130_fd_pr__pfet_01v8_lvt ad=1.16 pd=8.58 as=1.16 ps=8.58 w=4 l=0.35
X92 OUT2.t60 16to4_PriorityEncoder_v0p0p1_0.x36.Y GND.t1003 GND.t1002 sky130_fd_pr__nfet_01v8 ad=0.0878 pd=0.92 as=0.0878 ps=0.92 w=0.65 l=0.15
X93 frontAnalog_v0p0p1_12.RSfetsym_0.x2.Y frontAnalog_v0p0p1_12.x65.X VDD.t1040 VDD.t1035 sky130_fd_pr__pfet_01v8_hvt ad=0.135 pd=1.27 as=0.135 ps=1.27 w=1 l=0.15
X94 VDD.t454 16to4_PriorityEncoder_v0p0p1_0.x43.Y OUT3.t122 VDD.t453 sky130_fd_pr__pfet_01v8_hvt ad=0.26 pd=2.52 as=0.135 ps=1.27 w=1 l=0.15
X95 frontAnalog_v0p0p1_4.x63.X a_57123_n20279# VDD.t1425 VDD.t1424 sky130_fd_pr__pfet_01v8_hvt ad=0.205 pd=2.1 as=0.115 ps=1.08 w=0.79 l=0.15
X96 GND.t174 16to4_PriorityEncoder_v0p0p1_0.x29.Y OUT1.t61 GND.t173 sky130_fd_pr__nfet_01v8 ad=0.0878 pd=0.92 as=0.0878 ps=0.92 w=0.65 l=0.15
X97 w_55000_n35950# VIN.t2 a_53630_n36396# GND.t1044 sky130_fd_pr__nfet_01v8_lvt ad=1.16 pd=8.58 as=1.16 ps=8.58 w=4 l=0.6
X98 GND.t334 frontAnalog_v0p0p1_1.x63.X frontAnalog_v0p0p1_1.RSfetsym_0.x1.Y GND.t329 sky130_fd_pr__nfet_01v8 ad=0.0878 pd=0.92 as=0.0878 ps=0.92 w=0.65 l=0.15
X99 frontAnalog_v0p0p1_10.RSfetsym_0.x2.Y frontAnalog_v0p0p1_10.x65.X GND.t755 GND.t754 sky130_fd_pr__nfet_01v8 ad=0.0878 pd=0.92 as=0.169 ps=1.82 w=0.65 l=0.15
X100 GND.t492 16to4_PriorityEncoder_v0p0p1_0.x43.Y OUT3.t57 GND.t491 sky130_fd_pr__nfet_01v8 ad=0.0878 pd=0.92 as=0.0878 ps=0.92 w=0.65 l=0.15
X101 VDD.t704 I5.t6 a_77637_n49127# VDD.t271 sky130_fd_pr__pfet_01v8_hvt ad=0.167 pd=1.39 as=0.0567 ps=0.69 w=0.42 l=0.15
X102 GND.t1228 16to4_PriorityEncoder_v0p0p1_0.x36.A 16to4_PriorityEncoder_v0p0p1_0.x36.Y GND.t1227 sky130_fd_pr__nfet_01v8 ad=0.169 pd=1.82 as=0.0878 ps=0.92 w=0.65 l=0.15
X103 VDD.t1169 16to4_PriorityEncoder_v0p0p1_0.x21.A 16to4_PriorityEncoder_v0p0p1_0.x22.A VDD.t1168 sky130_fd_pr__pfet_01v8_hvt ad=0.135 pd=1.27 as=0.135 ps=1.27 w=1 l=0.15
X104 frontAnalog_v0p0p1_2.RSfetsym_0.x1.Y frontAnalog_v0p0p1_2.x63.X GND.t1536 GND.t1531 sky130_fd_pr__nfet_01v8 ad=0.0878 pd=0.92 as=0.169 ps=1.82 w=0.65 l=0.15
X105 VDD.t1156 16to4_PriorityEncoder_v0p0p1_0.x36.A 16to4_PriorityEncoder_v0p0p1_0.x36.Y VDD.t1155 sky130_fd_pr__pfet_01v8_hvt ad=0.135 pd=1.27 as=0.135 ps=1.27 w=1 l=0.15
X106 a_16541_n13117.t20 GND.t283 GND.t282 sky130_fd_pr__res_xhigh_po_5p73 l=85.8
X107 I1.t3 frontAnalog_v0p0p1_14.RSfetsym_0.x2.Y GND.t746 GND.t745 sky130_fd_pr__nfet_01v8 ad=0.58 pd=4.58 as=0.58 ps=4.58 w=2 l=0.25
X108 GND.t1529 frontAnalog_v0p0p1_9.x65.A.t4 a_57123_n51159# GND.t1442 sky130_fd_pr__nfet_01v8 ad=0.0754 pd=0.81 as=0.135 ps=1.56 w=0.52 l=0.15
X109 VV3.t13 VV2.t14 GND.t251 sky130_fd_pr__res_xhigh_po_5p73 l=2.52
X110 VDD.t623 I13.t6 a_77605_n45765# VDD.t622 sky130_fd_pr__pfet_01v8_hvt ad=0.0567 pd=0.69 as=0.109 ps=1.36 w=0.42 l=0.15
X111 a_77881_n52567# 16to4_PriorityEncoder_v0p0p1_0.x3.x18.C a_77775_n52567# GND.t812 sky130_fd_pr__nfet_01v8 ad=0.0693 pd=0.75 as=0.0798 ps=0.8 w=0.42 l=0.15
X112 16to4_PriorityEncoder_v0p0p1_0.x22.Y 16to4_PriorityEncoder_v0p0p1_0.x22.A GND.t1353 GND.t1352 sky130_fd_pr__nfet_01v8 ad=0.0878 pd=0.92 as=0.0878 ps=0.92 w=0.65 l=0.15
X113 frontAnalog_v0p0p1_9.x63.A.t2 frontAnalog_v0p0p1_9.x65.A.t5 a_55268_n52536# GND.t1444 sky130_fd_pr__nfet_01v8_lvt ad=0.29 pd=2.58 as=0.29 ps=2.58 w=1 l=0.15
X114 OUT2.t123 16to4_PriorityEncoder_v0p0p1_0.x36.Y VDD.t942 VDD.t941 sky130_fd_pr__pfet_01v8_hvt ad=0.135 pd=1.27 as=0.26 ps=2.52 w=1 l=0.15
X115 OUT0.t124 16to4_PriorityEncoder_v0p0p1_0.x22.Y VDD.t586 VDD.t585 sky130_fd_pr__pfet_01v8_hvt ad=0.135 pd=1.27 as=0.135 ps=1.27 w=1 l=0.15
X116 VDD.t584 16to4_PriorityEncoder_v0p0p1_0.x22.Y OUT0.t123 VDD.t583 sky130_fd_pr__pfet_01v8_hvt ad=0.135 pd=1.27 as=0.135 ps=1.27 w=1 l=0.15
X117 I6.t3 frontAnalog_v0p0p1_9.RSfetsym_0.QN.t5 VDD.t3 VDD.t2 sky130_fd_pr__pfet_01v8 ad=0.58 pd=4.58 as=0.58 ps=4.58 w=2 l=0.3
X118 frontAnalog_v0p0p1_6.RSfetsym_0.x2.Y frontAnalog_v0p0p1_6.x65.X VDD.t1262 VDD.t1257 sky130_fd_pr__pfet_01v8_hvt ad=0.135 pd=1.27 as=0.135 ps=1.27 w=1 l=0.15
X119 GND.t1143 16to4_PriorityEncoder_v0p0p1_0.x43.A 16to4_PriorityEncoder_v0p0p1_0.x43.Y GND.t1142 sky130_fd_pr__nfet_01v8 ad=0.0878 pd=0.92 as=0.0878 ps=0.92 w=0.65 l=0.15
X120 GND.t172 16to4_PriorityEncoder_v0p0p1_0.x29.Y OUT1.t60 GND.t171 sky130_fd_pr__nfet_01v8 ad=0.0878 pd=0.92 as=0.0878 ps=0.92 w=0.65 l=0.15
X121 OUT2.t122 16to4_PriorityEncoder_v0p0p1_0.x36.Y VDD.t940 VDD.t939 sky130_fd_pr__pfet_01v8_hvt ad=0.135 pd=1.27 as=0.135 ps=1.27 w=1 l=0.15
X122 frontAnalog_v0p0p1_3.RSfetsym_0.x2.Y frontAnalog_v0p0p1_3.x65.X GND.t646 GND.t645 sky130_fd_pr__nfet_01v8 ad=0.0878 pd=0.92 as=0.169 ps=1.82 w=0.65 l=0.15
X123 a_77639_n42341# VDD.t1204 VDD.t1206 VDD.t1205 sky130_fd_pr__pfet_01v8_hvt ad=0.0567 pd=0.69 as=0.118 ps=1.4 w=0.42 l=0.15
X124 frontAnalog_v0p0p1_13.RSfetsym_0.x1.Y frontAnalog_v0p0p1_13.x63.X GND.t742 GND.t738 sky130_fd_pr__nfet_01v8 ad=0.0878 pd=0.92 as=0.169 ps=1.82 w=0.65 l=0.15
X125 a_59577_n57483# frontAnalog_v0p0p1_10.x63.X I5.t2 GND.t823 sky130_fd_pr__nfet_01v8 ad=0.29 pd=2.58 as=0.29 ps=2.58 w=1 l=0.15
X126 a_59578_n67770# frontAnalog_v0p0p1_13.x65.X frontAnalog_v0p0p1_13.RSfetsym_0.QN.t4 GND.t1527 sky130_fd_pr__nfet_01v8 ad=0.29 pd=2.58 as=0.315 ps=2.72 w=1 l=0.15
X127 a_77687_n45765# I13.t7 a_77605_n45765# GND.t669 sky130_fd_pr__nfet_01v8 ad=0.0441 pd=0.63 as=0.109 ps=1.36 w=0.42 l=0.15
X128 16to4_PriorityEncoder_v0p0p1_0.x42.A 16to4_PriorityEncoder_v0p0p1_0.x5.GS VDD.t1438 VDD.t1437 sky130_fd_pr__pfet_01v8_hvt ad=0.26 pd=2.52 as=0.26 ps=2.52 w=1 l=0.15
X129 16to4_PriorityEncoder_v0p0p1_0.x3.x19.X a_77605_n52819# VDD.t1448 VDD.t1447 sky130_fd_pr__pfet_01v8_hvt ad=0.26 pd=2.52 as=0.312 ps=1.68 w=1 l=0.15
X130 VV2.t2 VV1.t2 GND.t236 sky130_fd_pr__res_xhigh_po_5p73 l=2.52
X131 VDD.t938 16to4_PriorityEncoder_v0p0p1_0.x36.Y OUT2.t121 VDD.t937 sky130_fd_pr__pfet_01v8_hvt ad=0.135 pd=1.27 as=0.135 ps=1.27 w=1 l=0.15
X132 OUT1.t59 16to4_PriorityEncoder_v0p0p1_0.x29.Y GND.t170 GND.t169 sky130_fd_pr__nfet_01v8 ad=0.0878 pd=0.92 as=0.0878 ps=0.92 w=0.65 l=0.15
X133 frontAnalog_v0p0p1_7.x63.A.t2 frontAnalog_v0p0p1_7.x65.A.t4 VDD.t668 VDD.t667 sky130_fd_pr__pfet_01v8_lvt ad=1.16 pd=8.58 as=1.16 ps=8.58 w=4 l=0.35
X134 I9.t4 frontAnalog_v0p0p1_7.RSfetsym_0.x2.Y GND.t1257 GND.t1060 sky130_fd_pr__nfet_01v8 ad=0.58 pd=4.58 as=0.58 ps=4.58 w=2 l=0.25
X135 VV7.t16 w_55000_n52150# error sky130_fd_pr__cap_var_lvt w=2 l=0.18
X136 a_16719_n13117.t18 a_16599_n13205.t5 a_16541_n13117.t9 GND.t1084 sky130_fd_pr__nfet_01v8_lvt ad=1.16 pd=8.58 as=1.16 ps=8.58 w=4 l=0.6
X137 16to4_PriorityEncoder_v0p0p1_0.x5.x11.X a_77637_n41087# GND.t1237 GND.t1159 sky130_fd_pr__nfet_01v8 ad=0.182 pd=1.86 as=0.112 ps=1.04 w=0.65 l=0.15
X138 OUT0.t58 16to4_PriorityEncoder_v0p0p1_0.x22.Y GND.t622 GND.t621 sky130_fd_pr__nfet_01v8 ad=0.0878 pd=0.92 as=0.0878 ps=0.92 w=0.65 l=0.15
X139 GND.t1414 16to4_PriorityEncoder_v0p0p1_0.x3.x14.A a_78065_n49349# GND.t1413 sky130_fd_pr__nfet_01v8 ad=0.102 pd=0.99 as=0.0567 ps=0.69 w=0.42 l=0.15
X140 a_78703_n45515# 16to4_PriorityEncoder_v0p0p1_0.x5.x19.X a_78607_n45515# VDD.t1480 sky130_fd_pr__pfet_01v8_hvt ad=0.0441 pd=0.63 as=0.0693 ps=0.75 w=0.42 l=0.15
X141 frontAnalog_v0p0p1_2.x65.X a_57123_n2559# GND.t1490 GND.t1234 sky130_fd_pr__nfet_01v8 ad=0.135 pd=1.56 as=0.0754 ps=0.81 w=0.52 l=0.15
X142 16to4_PriorityEncoder_v0p0p1_0.x22.Y 16to4_PriorityEncoder_v0p0p1_0.x22.A VDD.t1297 VDD.t1296 sky130_fd_pr__pfet_01v8_hvt ad=0.135 pd=1.27 as=0.135 ps=1.27 w=1 l=0.15
X143 a_16719_n13117.t21 a_16719_n13117.t20 a_16599_n13205.t2 GND.t685 sky130_fd_pr__nfet_01v8_lvt ad=0.122 pd=1.42 as=0.122 ps=1.42 w=0.42 l=0.15
X144 VDD.t236 frontAnalog_v0p0p1_8.x65.X frontAnalog_v0p0p1_8.RSfetsym_0.x2.Y VDD.t229 sky130_fd_pr__pfet_01v8_hvt ad=0.135 pd=1.27 as=0.135 ps=1.27 w=1 l=0.15
X145 GND.t490 16to4_PriorityEncoder_v0p0p1_0.x43.Y OUT3.t56 GND.t489 sky130_fd_pr__nfet_01v8 ad=0.0878 pd=0.92 as=0.0878 ps=0.92 w=0.65 l=0.15
X146 GND.t1351 16to4_PriorityEncoder_v0p0p1_0.x22.A 16to4_PriorityEncoder_v0p0p1_0.x22.Y GND.t1350 sky130_fd_pr__nfet_01v8 ad=0.0878 pd=0.92 as=0.0878 ps=0.92 w=0.65 l=0.15
X147 VDD.t936 16to4_PriorityEncoder_v0p0p1_0.x36.Y OUT2.t120 VDD.t935 sky130_fd_pr__pfet_01v8_hvt ad=0.135 pd=1.27 as=0.135 ps=1.27 w=1 l=0.15
X148 VDD.t1030 frontAnalog_v0p0p1_13.x63.A.t4 a_57123_n68879# VDD.t1029 sky130_fd_pr__pfet_01v8_hvt ad=0.115 pd=1.08 as=0.205 ps=2.1 w=0.79 l=0.15
X149 a_59577_n14283# frontAnalog_v0p0p1_3.x63.X I13.t1 GND.t865 sky130_fd_pr__nfet_01v8 ad=0.29 pd=2.58 as=0.29 ps=2.58 w=1 l=0.15
X150 a_59578_n24570# frontAnalog_v0p0p1_5.x65.X frontAnalog_v0p0p1_5.RSfetsym_0.QN.t1 GND.t874 sky130_fd_pr__nfet_01v8 ad=0.29 pd=2.58 as=0.315 ps=2.72 w=1 l=0.15
X151 16to4_PriorityEncoder_v0p0p1_0.x29.Y 16to4_PriorityEncoder_v0p0p1_0.x29.A GND.t1390 GND.t1389 sky130_fd_pr__nfet_01v8 ad=0.0878 pd=0.92 as=0.0878 ps=0.92 w=0.65 l=0.15
X152 VV7.t5 VV6.t9 GND.t699 sky130_fd_pr__res_xhigh_po_5p73 l=2.52
X153 I6.t2 frontAnalog_v0p0p1_9.x63.X VDD.t198 VDD.t195 sky130_fd_pr__pfet_01v8 ad=0.29 pd=2.29 as=0.58 ps=4.58 w=2 l=0.25
X154 a_53630_n63396# IB.t4 GND.t1402 GND.t5 sky130_fd_pr__nfet_01v8_lvt ad=1.16 pd=8.58 as=1.16 ps=8.58 w=4 l=0.6
X155 16to4_PriorityEncoder_v0p0p1_0.x5.x22.A a_77639_n42341# VDD.t674 VDD.t673 sky130_fd_pr__pfet_01v8_hvt ad=0.475 pd=2.95 as=0.167 ps=1.39 w=1 l=0.15
X156 frontAnalog_v0p0p1_0.RSfetsym_0.x1.Y frontAnalog_v0p0p1_0.x63.X GND.t1154 GND.t1150 sky130_fd_pr__nfet_01v8 ad=0.0878 pd=0.92 as=0.0878 ps=0.92 w=0.65 l=0.15
X157 16to4_PriorityEncoder_v0p0p1_0.x43.Y 16to4_PriorityEncoder_v0p0p1_0.x43.A GND.t1141 GND.t1140 sky130_fd_pr__nfet_01v8 ad=0.0878 pd=0.92 as=0.0878 ps=0.92 w=0.65 l=0.15
X158 VDD.t980 frontAnalog_v0p0p1_10.x63.A.t4 frontAnalog_v0p0p1_10.x65.A.t0 VDD.t979 sky130_fd_pr__pfet_01v8_lvt ad=1.16 pd=8.58 as=1.16 ps=8.58 w=4 l=0.35
X159 OUT2.t59 16to4_PriorityEncoder_v0p0p1_0.x36.Y GND.t1001 GND.t1000 sky130_fd_pr__nfet_01v8 ad=0.0878 pd=0.92 as=0.169 ps=1.82 w=0.65 l=0.15
X160 frontAnalog_v0p0p1_0.RSfetsym_0.x2.Y frontAnalog_v0p0p1_0.x65.X GND.t769 GND.t768 sky130_fd_pr__nfet_01v8 ad=0.0878 pd=0.92 as=0.169 ps=1.82 w=0.65 l=0.15
X161 OUT1.t126 16to4_PriorityEncoder_v0p0p1_0.x29.Y VDD.t162 VDD.t161 sky130_fd_pr__pfet_01v8_hvt ad=0.135 pd=1.27 as=0.135 ps=1.27 w=1 l=0.15
X162 w_55000_n8950# VIN.t3 a_53630_n9396# GND.t659 sky130_fd_pr__nfet_01v8_lvt ad=1.16 pd=8.58 as=1.16 ps=8.58 w=4 l=0.6
X163 VDD.t1345 I5.t7 a_77605_n53805# VDD.t276 sky130_fd_pr__pfet_01v8_hvt ad=0.0567 pd=0.69 as=0.109 ps=1.36 w=0.42 l=0.15
X164 frontAnalog_v0p0p1_12.x65.X a_57123_n72759# GND.t1530 GND.t210 sky130_fd_pr__nfet_01v8 ad=0.135 pd=1.56 as=0.0754 ps=0.81 w=0.52 l=0.15
X165 VDD.t160 16to4_PriorityEncoder_v0p0p1_0.x29.Y OUT1.t125 VDD.t159 sky130_fd_pr__pfet_01v8_hvt ad=0.135 pd=1.27 as=0.135 ps=1.27 w=1 l=0.15
X166 OUT0.t122 16to4_PriorityEncoder_v0p0p1_0.x22.Y VDD.t582 VDD.t581 sky130_fd_pr__pfet_01v8_hvt ad=0.135 pd=1.27 as=0.135 ps=1.27 w=1 l=0.15
X167 frontAnalog_v0p0p1_4.RSfetsym_0.x2.Y frontAnalog_v0p0p1_4.x65.X GND.t833 GND.t832 sky130_fd_pr__nfet_01v8 ad=0.0878 pd=0.92 as=0.0878 ps=0.92 w=0.65 l=0.15
X168 GND.t488 16to4_PriorityEncoder_v0p0p1_0.x43.Y OUT3.t55 GND.t487 sky130_fd_pr__nfet_01v8 ad=0.0878 pd=0.92 as=0.0878 ps=0.92 w=0.65 l=0.15
X169 VDD.t645 frontAnalog_v0p0p1_5.x63.A.t4 a_57123_n25679# VDD.t644 sky130_fd_pr__pfet_01v8_hvt ad=0.115 pd=1.08 as=0.205 ps=2.1 w=0.79 l=0.15
X170 GND.t620 16to4_PriorityEncoder_v0p0p1_0.x22.Y OUT0.t57 GND.t619 sky130_fd_pr__nfet_01v8 ad=0.0878 pd=0.92 as=0.0878 ps=0.92 w=0.65 l=0.15
X171 a_53630_n20196# IB.t5 GND.t1403 GND.t5 sky130_fd_pr__nfet_01v8_lvt ad=1.16 pd=8.58 as=1.16 ps=8.58 w=4 l=0.6
X172 a_77639_n50381# 16to4_PriorityEncoder_v0p0p1_0.x3.EI VDD.t283 VDD.t282 sky130_fd_pr__pfet_01v8_hvt ad=0.0567 pd=0.69 as=0.118 ps=1.4 w=0.42 l=0.15
X173 VDD.t1154 16to4_PriorityEncoder_v0p0p1_0.x36.A 16to4_PriorityEncoder_v0p0p1_0.x36.Y VDD.t1153 sky130_fd_pr__pfet_01v8_hvt ad=0.135 pd=1.27 as=0.135 ps=1.27 w=1 l=0.15
X174 VDD.t1295 16to4_PriorityEncoder_v0p0p1_0.x22.A 16to4_PriorityEncoder_v0p0p1_0.x22.Y VDD.t1294 sky130_fd_pr__pfet_01v8_hvt ad=0.135 pd=1.27 as=0.135 ps=1.27 w=1 l=0.15
X175 VDD.t264 frontAnalog_v0p0p1_3.x63.A.t4 frontAnalog_v0p0p1_3.x65.A.t1 VDD.t248 sky130_fd_pr__pfet_01v8_lvt ad=1.16 pd=8.58 as=1.16 ps=8.58 w=4 l=0.35
X176 OUT3.t54 16to4_PriorityEncoder_v0p0p1_0.x43.Y GND.t486 GND.t485 sky130_fd_pr__nfet_01v8 ad=0.0878 pd=0.92 as=0.0878 ps=0.92 w=0.65 l=0.15
X177 VDD.t759 S0.t4 a_57123_n83559# VDD.t758 sky130_fd_pr__pfet_01v8_hvt ad=0.115 pd=1.08 as=0.205 ps=2.1 w=0.79 l=0.15
X178 GND.t1033 R1.t5 a_57123_n79679# GND.t1032 sky130_fd_pr__nfet_01v8 ad=0.0754 pd=0.81 as=0.135 ps=1.56 w=0.52 l=0.15
X179 a_55268_n47136# CLK.t3 GND.t718 GND.t717 sky130_fd_pr__nfet_01v8_lvt ad=0.29 pd=2.58 as=0.29 ps=2.58 w=1 l=0.15
X180 frontAnalog_v0p0p1_1.RSfetsym_0.x2.Y frontAnalog_v0p0p1_1.x65.X GND.t1059 GND.t1058 sky130_fd_pr__nfet_01v8 ad=0.0878 pd=0.92 as=0.0878 ps=0.92 w=0.65 l=0.15
X181 VDD.t1039 frontAnalog_v0p0p1_12.x65.X frontAnalog_v0p0p1_12.RSfetsym_0.x2.Y VDD.t1035 sky130_fd_pr__pfet_01v8_hvt ad=0.26 pd=2.52 as=0.135 ps=1.27 w=1 l=0.15
X182 GND.t788 16to4_PriorityEncoder_v0p0p1_0.x3.x15.X a_78349_n51085# GND.t360 sky130_fd_pr__nfet_01v8 ad=0.0567 pd=0.69 as=0.0693 ps=0.75 w=0.42 l=0.15
X183 frontAnalog_v0p0p1_4.x65.A.t1 frontAnalog_v0p0p1_4.x63.A.t4 a_55268_n20136# GND.t727 sky130_fd_pr__nfet_01v8_lvt ad=0.29 pd=2.58 as=0.29 ps=2.58 w=1 l=0.15
X184 frontAnalog_v0p0p1_9.RSfetsym_0.QN.t1 I6.t5 VDD.t1367 VDD.t2 sky130_fd_pr__pfet_01v8 ad=0.58 pd=4.58 as=0.58 ps=4.58 w=2 l=0.3
X185 OUT3.t121 16to4_PriorityEncoder_v0p0p1_0.x43.Y VDD.t452 VDD.t451 sky130_fd_pr__pfet_01v8_hvt ad=0.135 pd=1.27 as=0.135 ps=1.27 w=1 l=0.15
X186 VV10.t6 VV9.t7 GND.t236 sky130_fd_pr__res_xhigh_po_5p73 l=2.52
X187 a_78703_n53555# 16to4_PriorityEncoder_v0p0p1_0.x3.x19.X a_78607_n53555# VDD.t1421 sky130_fd_pr__pfet_01v8_hvt ad=0.0441 pd=0.63 as=0.0693 ps=0.75 w=0.42 l=0.15
X188 GND.t618 16to4_PriorityEncoder_v0p0p1_0.x22.Y OUT0.t56 GND.t617 sky130_fd_pr__nfet_01v8 ad=0.0878 pd=0.92 as=0.0878 ps=0.92 w=0.65 l=0.15
X189 OUT1.t58 16to4_PriorityEncoder_v0p0p1_0.x29.Y GND.t168 GND.t167 sky130_fd_pr__nfet_01v8 ad=0.0878 pd=0.92 as=0.0878 ps=0.92 w=0.65 l=0.15
X190 VV12.t9 VV11.t9 GND.t1273 sky130_fd_pr__res_xhigh_po_5p73 l=2.52
X191 VV3.t4 VV2.t7 GND.t250 sky130_fd_pr__res_xhigh_po_5p73 l=2.52
X192 a_77775_n51335# 16to4_PriorityEncoder_v0p0p1_0.x3.x19.C a_77687_n51335# GND.t235 sky130_fd_pr__nfet_01v8 ad=0.0798 pd=0.8 as=0.0609 ps=0.71 w=0.42 l=0.15
X193 16to4_PriorityEncoder_v0p0p1_0.x43.A 16to4_PriorityEncoder_v0p0p1_0.x42.A VDD.t1446 VDD.t1445 sky130_fd_pr__pfet_01v8_hvt ad=0.135 pd=1.27 as=0.26 ps=2.52 w=1 l=0.15
X194 a_53630_n25596# VV12.t16 w_55000_n24528# GND.t284 sky130_fd_pr__nfet_01v8_lvt ad=1.16 pd=8.58 as=1.16 ps=8.58 w=4 l=0.6
X195 VV13.t11 VV12.t10 GND.t236 sky130_fd_pr__res_xhigh_po_5p73 l=2.52
X196 OUT3.t53 16to4_PriorityEncoder_v0p0p1_0.x43.Y GND.t484 GND.t483 sky130_fd_pr__nfet_01v8 ad=0.0878 pd=0.92 as=0.0878 ps=0.92 w=0.65 l=0.15
X197 16to4_PriorityEncoder_v0p0p1_0.x28.A 16to4_PriorityEncoder_v0p0p1_0.x1.X GND.t835 GND.t834 sky130_fd_pr__nfet_01v8 ad=0.169 pd=1.82 as=0.169 ps=1.82 w=0.65 l=0.15
X198 VDD.t580 16to4_PriorityEncoder_v0p0p1_0.x22.Y OUT0.t121 VDD.t579 sky130_fd_pr__pfet_01v8_hvt ad=0.135 pd=1.27 as=0.135 ps=1.27 w=1 l=0.15
X199 VDD.t934 16to4_PriorityEncoder_v0p0p1_0.x36.Y OUT2.t119 VDD.t933 sky130_fd_pr__pfet_01v8_hvt ad=0.135 pd=1.27 as=0.135 ps=1.27 w=1 l=0.15
X200 frontAnalog_v0p0p1_9.RSfetsym_0.x2.Y frontAnalog_v0p0p1_9.x65.X VDD.t1418 VDD.t1413 sky130_fd_pr__pfet_01v8_hvt ad=0.135 pd=1.27 as=0.26 ps=2.52 w=1 l=0.15
X201 VDD.t716 frontAnalog_v0p0p1_1.x65.A.t4 a_57123_n40359# VDD.t715 sky130_fd_pr__pfet_01v8_hvt ad=0.115 pd=1.08 as=0.205 ps=2.1 w=0.79 l=0.15
X202 GND.t850 frontAnalog_v0p0p1_7.x63.A.t4 a_57123_n36479# GND.t723 sky130_fd_pr__nfet_01v8 ad=0.0754 pd=0.81 as=0.135 ps=1.56 w=0.52 l=0.15
X203 frontAnalog_v0p0p1_10.RSfetsym_0.QN.t3 frontAnalog_v0p0p1_10.x65.X VDD.t690 VDD.t686 sky130_fd_pr__pfet_01v8 ad=0.29 pd=2.29 as=0.58 ps=4.58 w=2 l=0.25
X204 frontAnalog_v0p0p1_9.RSfetsym_0.x1.Y frontAnalog_v0p0p1_9.x63.X GND.t217 GND.t212 sky130_fd_pr__nfet_01v8 ad=0.0878 pd=0.92 as=0.0878 ps=0.92 w=0.65 l=0.15
X205 VDD.t1261 frontAnalog_v0p0p1_6.x65.X frontAnalog_v0p0p1_6.RSfetsym_0.x2.Y VDD.t1257 sky130_fd_pr__pfet_01v8_hvt ad=0.26 pd=2.52 as=0.135 ps=1.27 w=1 l=0.15
X206 16to4_PriorityEncoder_v0p0p1_0.x36.Y 16to4_PriorityEncoder_v0p0p1_0.x36.A VDD.t1152 VDD.t1151 sky130_fd_pr__pfet_01v8_hvt ad=0.135 pd=1.27 as=0.135 ps=1.27 w=1 l=0.15
X207 VDD.t1378 I4.t5 a_77637_n48817# VDD.t1377 sky130_fd_pr__pfet_01v8_hvt ad=0.167 pd=1.39 as=0.0567 ps=0.69 w=0.42 l=0.15
X208 VDD.t158 16to4_PriorityEncoder_v0p0p1_0.x29.Y OUT1.t124 VDD.t157 sky130_fd_pr__pfet_01v8_hvt ad=0.26 pd=2.52 as=0.135 ps=1.27 w=1 l=0.15
X209 VDD.t1456 frontAnalog_v0p0p1_13.x65.X frontAnalog_v0p0p1_13.RSfetsym_0.QN.t3 VDD.t1452 sky130_fd_pr__pfet_01v8 ad=0.58 pd=4.58 as=0.29 ps=2.29 w=2 l=0.25
X210 GND.t616 16to4_PriorityEncoder_v0p0p1_0.x22.Y OUT0.t55 GND.t615 sky130_fd_pr__nfet_01v8 ad=0.0878 pd=0.92 as=0.0878 ps=0.92 w=0.65 l=0.15
X211 VDD.t578 16to4_PriorityEncoder_v0p0p1_0.x22.Y OUT0.t120 VDD.t577 sky130_fd_pr__pfet_01v8_hvt ad=0.135 pd=1.27 as=0.135 ps=1.27 w=1 l=0.15
X212 frontAnalog_v0p0p1_11.RSfetsym_0.x1.Y frontAnalog_v0p0p1_11.x63.X VDD.t820 VDD.t815 sky130_fd_pr__pfet_01v8_hvt ad=0.135 pd=1.27 as=0.135 ps=1.27 w=1 l=0.15