* NGSPICE file created from flashADC_flat.ext - technology: sky130A

.subckt flashADC_flat VL VV11 VV12 VV15 S0 S1 I0 VV16 I3 VV6 VV8 VV10 I13 VV14 I5
+ VV3 I4 VV9 I11 VV4 VV1 I10 I1 I2 I6 OUT3 OUT2 VV7 VV2 I12 I9 R1 OUT1 VFS I14 VV5
+ VV13 I8 OUT0 R0 CLK I15 VIN GND VDD I7
X0 GND.t1270 frontAnalog_v0p0p1_7.x65.X frontAnalog_v0p0p1_7.RSfetsym_0.x2.Y GND.t1269 sky130_fd_pr__nfet_01v8 ad=0.169 pd=1.82 as=0.0878 ps=0.92 w=0.65 l=0.15
X1 OUT3.t127 16to4_PriorityEncoder_v0p0p1_0.x43.Y VDD.t332 VDD.t331 sky130_fd_pr__pfet_01v8_hvt ad=0.135 pd=1.27 as=0.135 ps=1.27 w=1 l=0.15
X2 VDD.t132 R0.t4 a_57123_n85079# VDD.t131 sky130_fd_pr__pfet_01v8_hvt ad=0.115 pd=1.08 as=0.205 ps=2.1 w=0.79 l=0.15
X3 GND.t986 16to4_PriorityEncoder_v0p0p1_0.x22.Y OUT0.t63 GND.t985 sky130_fd_pr__nfet_01v8 ad=0.0878 pd=0.92 as=0.0878 ps=0.92 w=0.65 l=0.15
X4 VDD.t790 frontAnalog_v0p0p1_10.x63.X I5.t3 VDD.t785 sky130_fd_pr__pfet_01v8 ad=0.58 pd=4.58 as=0.29 ps=2.29 w=2 l=0.25
X5 VDD.t1054 16to4_PriorityEncoder_v0p0p1_0.x36.Y OUT2.t127 VDD.t1053 sky130_fd_pr__pfet_01v8_hvt ad=0.135 pd=1.27 as=0.135 ps=1.27 w=1 l=0.15
X6 VFS.t4 VV16.t9 GND.t122 sky130_fd_pr__res_xhigh_po_5p73 l=2.52
X7 a_78315_n41309# 16to4_PriorityEncoder_v0p0p1_0.x5.x11.X a_78243_n41309# VDD.t410 sky130_fd_pr__pfet_01v8_hvt ad=0.0693 pd=0.75 as=0.0441 ps=0.63 w=0.42 l=0.15
X8 a_16719_n13117.t23 a_16599_n13205.t4 a_16541_n13117.t21 GND.t729 sky130_fd_pr__nfet_01v8_lvt ad=1.16 pd=8.58 as=1.16 ps=8.58 w=4 l=0.6
X9 w_55000_n56928# CLK.t0 frontAnalog_v0p0p1_10.x65.A.t1 VDD.t562 sky130_fd_pr__pfet_01v8_lvt ad=1.16 pd=8.58 as=1.16 ps=8.58 w=4 l=0.35
X10 VV4.t8 VV3.t7 GND.t106 sky130_fd_pr__res_xhigh_po_5p73 l=2.52
X11 frontAnalog_v0p0p1_3.x65.X a_57123_n13359# VDD.t1298 VDD.t1297 sky130_fd_pr__pfet_01v8_hvt ad=0.205 pd=2.1 as=0.115 ps=1.08 w=0.79 l=0.15
X12 VDD.t1104 frontAnalog_v0p0p1_9.x63.X frontAnalog_v0p0p1_9.RSfetsym_0.x1.Y VDD.t1097 sky130_fd_pr__pfet_01v8_hvt ad=0.135 pd=1.27 as=0.135 ps=1.27 w=1 l=0.15
X13 OUT3.t63 16to4_PriorityEncoder_v0p0p1_0.x43.Y GND.t343 GND.t342 sky130_fd_pr__nfet_01v8 ad=0.0878 pd=0.92 as=0.0878 ps=0.92 w=0.65 l=0.15
X14 S1.t2 R1.t4 a_55268_n79536# GND.t819 sky130_fd_pr__nfet_01v8_lvt ad=0.29 pd=2.58 as=0.29 ps=2.58 w=1 l=0.15
X15 OUT2.t63 16to4_PriorityEncoder_v0p0p1_0.x36.Y GND.t1114 GND.t1113 sky130_fd_pr__nfet_01v8 ad=0.0878 pd=0.92 as=0.0878 ps=0.92 w=0.65 l=0.15
X16 frontAnalog_v0p0p1_5.RSfetsym_0.QN.t1 frontAnalog_v0p0p1_5.RSfetsym_0.x1.Y GND.t1247 GND.t1196 sky130_fd_pr__nfet_01v8 ad=0.58 pd=4.58 as=0.58 ps=4.58 w=2 l=0.25
X17 16to4_PriorityEncoder_v0p0p1_0.x29.A 16to4_PriorityEncoder_v0p0p1_0.x28.A VDD.t1080 VDD.t1079 sky130_fd_pr__pfet_01v8_hvt ad=0.135 pd=1.27 as=0.26 ps=2.52 w=1 l=0.15
X18 VV11.t10 VV10.t9 GND.t24 sky130_fd_pr__res_xhigh_po_5p73 l=2.52
X19 frontAnalog_v0p0p1_6.x63.X a_57123_n31079# GND.t720 GND.t719 sky130_fd_pr__nfet_01v8 ad=0.135 pd=1.56 as=0.0754 ps=0.81 w=0.52 l=0.15
X20 GND.t341 16to4_PriorityEncoder_v0p0p1_0.x43.Y OUT3.t62 GND.t340 sky130_fd_pr__nfet_01v8 ad=0.0878 pd=0.92 as=0.0878 ps=0.92 w=0.65 l=0.15
X21 GND.t814 frontAnalog_v0p0p1_8.x63.X frontAnalog_v0p0p1_8.RSfetsym_0.x1.Y GND.t809 sky130_fd_pr__nfet_01v8 ad=0.169 pd=1.82 as=0.0878 ps=0.92 w=0.65 l=0.15
X22 GND.t1112 16to4_PriorityEncoder_v0p0p1_0.x36.Y OUT2.t62 GND.t1111 sky130_fd_pr__nfet_01v8 ad=0.0878 pd=0.92 as=0.0878 ps=0.92 w=0.65 l=0.15
X23 OUT3.t126 16to4_PriorityEncoder_v0p0p1_0.x43.Y VDD.t330 VDD.t329 sky130_fd_pr__pfet_01v8_hvt ad=0.135 pd=1.27 as=0.135 ps=1.27 w=1 l=0.15
X24 VV2.t10 VV1.t12 GND.t52 sky130_fd_pr__res_xhigh_po_5p73 l=2.52
X25 a_53630_n84996# VV1.t16 w_55000_n83928# GND.t1239 sky130_fd_pr__nfet_01v8_lvt ad=1.16 pd=8.58 as=1.16 ps=8.58 w=4 l=0.6
X26 16to4_PriorityEncoder_v0p0p1_0.x29.Y 16to4_PriorityEncoder_v0p0p1_0.x29.A GND.t565 GND.t564 sky130_fd_pr__nfet_01v8 ad=0.0878 pd=0.92 as=0.0878 ps=0.92 w=0.65 l=0.15
X27 GND.t1140 I0.t5 a_77605_n47345# GND.t154 sky130_fd_pr__nfet_01v8 ad=0.102 pd=0.99 as=0.0567 ps=0.69 w=0.42 l=0.15
X28 VDD.t926 16to4_PriorityEncoder_v0p0p1_0.x22.Y OUT0.t127 VDD.t925 sky130_fd_pr__pfet_01v8_hvt ad=0.135 pd=1.27 as=0.135 ps=1.27 w=1 l=0.15
X29 VDD.t328 16to4_PriorityEncoder_v0p0p1_0.x43.Y OUT3.t125 VDD.t327 sky130_fd_pr__pfet_01v8_hvt ad=0.135 pd=1.27 as=0.135 ps=1.27 w=1 l=0.15
X30 a_55268_n63336# CLK.t1 GND.t589 GND.t588 sky130_fd_pr__nfet_01v8_lvt ad=0.29 pd=2.58 as=0.29 ps=2.58 w=1 l=0.15
X31 GND.t1388 16to4_PriorityEncoder_v0p0p1_0.x5.x17.A a_78349_n43045# GND.t175 sky130_fd_pr__nfet_01v8 ad=0.102 pd=0.99 as=0.0567 ps=0.69 w=0.42 l=0.15
X32 frontAnalog_v0p0p1_14.RSfetsym_0.x1.Y frontAnalog_v0p0p1_14.x63.X VDD.t354 VDD.t347 sky130_fd_pr__pfet_01v8_hvt ad=0.135 pd=1.27 as=0.26 ps=2.52 w=1 l=0.15
X33 a_77605_n51335# I2.t5 VDD.t334 VDD.t333 sky130_fd_pr__pfet_01v8_hvt ad=0.0735 pd=0.77 as=0.109 ps=1.36 w=0.42 l=0.15
X34 frontAnalog_v0p0p1_5.RSfetsym_0.x1.Y frontAnalog_v0p0p1_5.x63.X GND.t30 GND.t26 sky130_fd_pr__nfet_01v8 ad=0.0878 pd=0.92 as=0.169 ps=1.82 w=0.65 l=0.15
X35 VDD.t789 frontAnalog_v0p0p1_10.x63.X frontAnalog_v0p0p1_10.RSfetsym_0.x1.Y VDD.t783 sky130_fd_pr__pfet_01v8_hvt ad=0.26 pd=2.52 as=0.135 ps=1.27 w=1 l=0.15
X36 VDD.t1181 VDD.t1179 a_77605_n43295# VDD.t1180 sky130_fd_pr__pfet_01v8_hvt ad=0.312 pd=1.68 as=0.0588 ps=0.7 w=0.42 l=0.15
X37 VDD.t1464 16to4_PriorityEncoder_v0p0p1_0.x29.Y OUT1.t127 VDD.t1463 sky130_fd_pr__pfet_01v8_hvt ad=0.135 pd=1.27 as=0.135 ps=1.27 w=1 l=0.15
X38 GND.t339 16to4_PriorityEncoder_v0p0p1_0.x43.Y OUT3.t61 GND.t338 sky130_fd_pr__nfet_01v8 ad=0.0878 pd=0.92 as=0.0878 ps=0.92 w=0.65 l=0.15
X39 GND.t683 frontAnalog_v0p0p1_8.RSfetsym_0.QN.t5 a_59577_n46683# GND.t682 sky130_fd_pr__nfet_01v8 ad=0.29 pd=2.58 as=0.29 ps=2.58 w=1 l=0.15
X40 GND.t1110 16to4_PriorityEncoder_v0p0p1_0.x36.Y OUT2.t61 GND.t1109 sky130_fd_pr__nfet_01v8 ad=0.0878 pd=0.92 as=0.0878 ps=0.92 w=0.65 l=0.15
X41 GND.t745 I5.t5 a_59578_n56970# GND.t744 sky130_fd_pr__nfet_01v8 ad=0.29 pd=2.58 as=0.29 ps=2.58 w=1 l=0.15
X42 a_53630_n41796# VV9.t16 w_55000_n40728# GND.t162 sky130_fd_pr__nfet_01v8_lvt ad=1.16 pd=8.58 as=1.16 ps=8.58 w=4 l=0.6
X43 VDD.t1052 16to4_PriorityEncoder_v0p0p1_0.x36.Y OUT2.t126 VDD.t1051 sky130_fd_pr__pfet_01v8_hvt ad=0.135 pd=1.27 as=0.135 ps=1.27 w=1 l=0.15
X44 VV16.t7 VV15.t9 GND.t51 sky130_fd_pr__res_xhigh_po_5p73 l=2.52
X45 OUT1.t63 16to4_PriorityEncoder_v0p0p1_0.x29.Y GND.t1528 GND.t1527 sky130_fd_pr__nfet_01v8 ad=0.0878 pd=0.92 as=0.0878 ps=0.92 w=0.65 l=0.15
X46 GND.t199 frontAnalog_v0p0p1_12.x65.X frontAnalog_v0p0p1_12.RSfetsym_0.x2.Y GND.t198 sky130_fd_pr__nfet_01v8 ad=0.0878 pd=0.92 as=0.0878 ps=0.92 w=0.65 l=0.15
X47 OUT2.t125 16to4_PriorityEncoder_v0p0p1_0.x36.Y VDD.t1050 VDD.t1049 sky130_fd_pr__pfet_01v8_hvt ad=0.135 pd=1.27 as=0.135 ps=1.27 w=1 l=0.15
X48 GND.t563 16to4_PriorityEncoder_v0p0p1_0.x29.A 16to4_PriorityEncoder_v0p0p1_0.x29.Y GND.t562 sky130_fd_pr__nfet_01v8 ad=0.0878 pd=0.92 as=0.0878 ps=0.92 w=0.65 l=0.15
X49 frontAnalog_v0p0p1_7.RSfetsym_0.x1.Y frontAnalog_v0p0p1_7.x63.X VDD.t555 VDD.t548 sky130_fd_pr__pfet_01v8_hvt ad=0.135 pd=1.27 as=0.26 ps=2.52 w=1 l=0.15
X50 OUT0.t62 16to4_PriorityEncoder_v0p0p1_0.x22.Y GND.t984 GND.t983 sky130_fd_pr__nfet_01v8 ad=0.0878 pd=0.92 as=0.0878 ps=0.92 w=0.65 l=0.15
X51 a_77637_n50057# 16to4_PriorityEncoder_v0p0p1_0.x3.EI VDD.t1249 VDD.t459 sky130_fd_pr__pfet_01v8_hvt ad=0.0567 pd=0.69 as=0.118 ps=1.4 w=0.42 l=0.15
X52 frontAnalog_v0p0p1_2.x65.A.t2 frontAnalog_v0p0p1_2.x63.A.t4 a_55268_n3936# GND.t70 sky130_fd_pr__nfet_01v8_lvt ad=0.29 pd=2.58 as=0.29 ps=2.58 w=1 l=0.15
X53 VDD.t199 frontAnalog_v0p0p1_15.x65.X frontAnalog_v0p0p1_15.RSfetsym_0.QN.t1 VDD.t195 sky130_fd_pr__pfet_01v8 ad=0.58 pd=4.58 as=0.29 ps=2.29 w=2 l=0.25
X54 GND.t337 16to4_PriorityEncoder_v0p0p1_0.x43.Y OUT3.t60 GND.t336 sky130_fd_pr__nfet_01v8 ad=0.0878 pd=0.92 as=0.0878 ps=0.92 w=0.65 l=0.15
X55 GND.t982 16to4_PriorityEncoder_v0p0p1_0.x22.Y OUT0.t61 GND.t981 sky130_fd_pr__nfet_01v8 ad=0.0878 pd=0.92 as=0.0878 ps=0.92 w=0.65 l=0.15
X56 a_82906_n51645# 16to4_PriorityEncoder_v0p0p1_0.x3.A0 GND.t167 GND.t166 sky130_fd_pr__nfet_01v8 ad=0.0567 pd=0.69 as=0.109 ps=1.36 w=0.42 l=0.15
X57 OUT3.t124 16to4_PriorityEncoder_v0p0p1_0.x43.Y VDD.t326 VDD.t325 sky130_fd_pr__pfet_01v8_hvt ad=0.135 pd=1.27 as=0.26 ps=2.52 w=1 l=0.15
X58 VV6.t13 VV5.t11 GND.t24 sky130_fd_pr__res_xhigh_po_5p73 l=2.52
X59 frontAnalog_v0p0p1_6.RSfetsym_0.QN.t4 I10.t5 VDD.t126 VDD.t125 sky130_fd_pr__pfet_01v8 ad=0.58 pd=4.58 as=0.58 ps=4.58 w=2 l=0.3
X60 a_77881_n44527# 16to4_PriorityEncoder_v0p0p1_0.x5.x18.C a_77775_n44527# GND.t528 sky130_fd_pr__nfet_01v8 ad=0.0693 pd=0.75 as=0.0798 ps=0.8 w=0.42 l=0.15
X61 GND.t775 I13.t5 a_59578_n13770# GND.t774 sky130_fd_pr__nfet_01v8 ad=0.29 pd=2.58 as=0.29 ps=2.58 w=1 l=0.15
X62 OUT3.t59 16to4_PriorityEncoder_v0p0p1_0.x43.Y GND.t335 GND.t334 sky130_fd_pr__nfet_01v8 ad=0.0878 pd=0.92 as=0.0878 ps=0.92 w=0.65 l=0.15
X63 16to4_PriorityEncoder_v0p0p1_0.x36.Y 16to4_PriorityEncoder_v0p0p1_0.x36.A GND.t1565 GND.t1564 sky130_fd_pr__nfet_01v8 ad=0.0878 pd=0.92 as=0.0878 ps=0.92 w=0.65 l=0.15
X64 a_53630_n9396# frontAnalog_v0p0p1_10.IB.t3 GND.t385 GND.t384 sky130_fd_pr__nfet_01v8_lvt ad=1.16 pd=8.58 as=1.16 ps=8.58 w=4 l=0.6
X65 VDD.t324 16to4_PriorityEncoder_v0p0p1_0.x43.Y OUT3.t123 VDD.t323 sky130_fd_pr__pfet_01v8_hvt ad=0.135 pd=1.27 as=0.135 ps=1.27 w=1 l=0.15
X66 VDD.t55 frontAnalog_v0p0p1_2.x63.A.t5 a_57123_n4079# VDD.t54 sky130_fd_pr__pfet_01v8_hvt ad=0.115 pd=1.08 as=0.205 ps=2.1 w=0.79 l=0.15
X67 frontAnalog_v0p0p1_11.x63.X a_57123_n63479# VDD.t489 VDD.t488 sky130_fd_pr__pfet_01v8_hvt ad=0.205 pd=2.1 as=0.115 ps=1.08 w=0.79 l=0.15
X68 a_77723_n41087# VDD.t1502 a_77637_n41087# GND.t695 sky130_fd_pr__nfet_01v8 ad=0.0567 pd=0.69 as=0.118 ps=1.4 w=0.42 l=0.15
X69 VV14.t5 VV13.t3 GND.t24 sky130_fd_pr__res_xhigh_po_5p73 l=2.52
X70 GND.t12 frontAnalog_v0p0p1_6.x65.X frontAnalog_v0p0p1_6.RSfetsym_0.x2.Y GND.t11 sky130_fd_pr__nfet_01v8 ad=0.0878 pd=0.92 as=0.0878 ps=0.92 w=0.65 l=0.15
X71 GND.t1355 16to4_PriorityEncoder_v0p0p1_0.x21.A 16to4_PriorityEncoder_v0p0p1_0.x22.A GND.t1354 sky130_fd_pr__nfet_01v8 ad=0.0878 pd=0.92 as=0.0878 ps=0.92 w=0.65 l=0.15
X72 w_55000_n79150# VIN.t0 a_53630_n79596# GND.t854 sky130_fd_pr__nfet_01v8_lvt ad=1.16 pd=8.58 as=1.16 ps=8.58 w=4 l=0.6
X73 GND.t502 frontAnalog_v0p0p1_15.x63.X frontAnalog_v0p0p1_15.RSfetsym_0.x1.Y GND.t497 sky130_fd_pr__nfet_01v8 ad=0.0878 pd=0.92 as=0.0878 ps=0.92 w=0.65 l=0.15
X74 VIN.t1 w_55000_n51528# error sky130_fd_pr__cap_var_lvt w=2 l=0.18
X75 GND.t1526 16to4_PriorityEncoder_v0p0p1_0.x29.Y OUT1.t62 GND.t1525 sky130_fd_pr__nfet_01v8 ad=0.0878 pd=0.92 as=0.0878 ps=0.92 w=0.65 l=0.15
X76 16to4_PriorityEncoder_v0p0p1_0.x5.x19.X a_77605_n44779# VDD.t1321 VDD.t1320 sky130_fd_pr__pfet_01v8_hvt ad=0.26 pd=2.52 as=0.312 ps=1.68 w=1 l=0.15
X77 OUT2.t124 16to4_PriorityEncoder_v0p0p1_0.x36.Y VDD.t1048 VDD.t1047 sky130_fd_pr__pfet_01v8_hvt ad=0.135 pd=1.27 as=0.135 ps=1.27 w=1 l=0.15
X78 VV4.t6 VV3.t6 GND.t77 sky130_fd_pr__res_xhigh_po_5p73 l=2.52
X79 16to4_PriorityEncoder_v0p0p1_0.x43.Y 16to4_PriorityEncoder_v0p0p1_0.x43.A VDD.t644 VDD.t643 sky130_fd_pr__pfet_01v8_hvt ad=0.135 pd=1.27 as=0.135 ps=1.27 w=1 l=0.15
X80 VDD.t1145 frontAnalog_v0p0p1_4.x65.A.t4 a_57123_n18759# VDD.t1144 sky130_fd_pr__pfet_01v8_hvt ad=0.115 pd=1.08 as=0.205 ps=2.1 w=0.79 l=0.15
X81 VV10.t14 VV9.t13 GND.t52 sky130_fd_pr__res_xhigh_po_5p73 l=2.52
X82 OUT0.t126 16to4_PriorityEncoder_v0p0p1_0.x22.Y VDD.t924 VDD.t923 sky130_fd_pr__pfet_01v8_hvt ad=0.135 pd=1.27 as=0.135 ps=1.27 w=1 l=0.15
X83 a_78065_n41309# 16to4_PriorityEncoder_v0p0p1_0.x5.x22.A GND.t427 GND.t426 sky130_fd_pr__nfet_01v8 ad=0.0693 pd=0.75 as=0.109 ps=1.36 w=0.42 l=0.15
X84 OUT0.t60 16to4_PriorityEncoder_v0p0p1_0.x22.Y GND.t980 GND.t979 sky130_fd_pr__nfet_01v8 ad=0.0878 pd=0.92 as=0.0878 ps=0.92 w=0.65 l=0.15
X85 GND.t978 16to4_PriorityEncoder_v0p0p1_0.x22.Y OUT0.t59 GND.t977 sky130_fd_pr__nfet_01v8 ad=0.0878 pd=0.92 as=0.0878 ps=0.92 w=0.65 l=0.15
X86 VV3.t5 VV2.t4 GND.t422 sky130_fd_pr__res_xhigh_po_5p73 l=2.52
X87 VDD.t1248 16to4_PriorityEncoder_v0p0p1_0.x3.EI a_77605_n51335# VDD.t1247 sky130_fd_pr__pfet_01v8_hvt ad=0.312 pd=1.68 as=0.0588 ps=0.7 w=0.42 l=0.15
X88 VV13.t2 VV12.t2 GND.t52 sky130_fd_pr__res_xhigh_po_5p73 l=2.52
X89 VDD.t922 16to4_PriorityEncoder_v0p0p1_0.x22.Y OUT0.t125 VDD.t921 sky130_fd_pr__pfet_01v8_hvt ad=0.135 pd=1.27 as=0.135 ps=1.27 w=1 l=0.15
X90 OUT3.t58 16to4_PriorityEncoder_v0p0p1_0.x43.Y GND.t333 GND.t332 sky130_fd_pr__nfet_01v8 ad=0.0878 pd=0.92 as=0.0878 ps=0.92 w=0.65 l=0.15
X91 frontAnalog_v0p0p1_9.x65.A.t2 CLK.t2 frontAnalog_v0p0p1_9.x63.A.t1 VDD.t142 sky130_fd_pr__pfet_01v8_lvt ad=1.16 pd=8.58 as=1.16 ps=8.58 w=4 l=0.35
X92 OUT2.t60 16to4_PriorityEncoder_v0p0p1_0.x36.Y GND.t1108 GND.t1107 sky130_fd_pr__nfet_01v8 ad=0.0878 pd=0.92 as=0.0878 ps=0.92 w=0.65 l=0.15
X93 frontAnalog_v0p0p1_12.RSfetsym_0.x2.Y frontAnalog_v0p0p1_12.x65.X VDD.t190 VDD.t185 sky130_fd_pr__pfet_01v8_hvt ad=0.135 pd=1.27 as=0.135 ps=1.27 w=1 l=0.15
X94 VDD.t322 16to4_PriorityEncoder_v0p0p1_0.x43.Y OUT3.t122 VDD.t321 sky130_fd_pr__pfet_01v8_hvt ad=0.26 pd=2.52 as=0.135 ps=1.27 w=1 l=0.15
X95 frontAnalog_v0p0p1_4.x63.X a_57123_n20279# VDD.t500 VDD.t499 sky130_fd_pr__pfet_01v8_hvt ad=0.205 pd=2.1 as=0.115 ps=1.08 w=0.79 l=0.15
X96 GND.t1524 16to4_PriorityEncoder_v0p0p1_0.x29.Y OUT1.t61 GND.t1523 sky130_fd_pr__nfet_01v8 ad=0.0878 pd=0.92 as=0.0878 ps=0.92 w=0.65 l=0.15
X97 w_55000_n35950# VIN.t2 a_53630_n36396# GND.t127 sky130_fd_pr__nfet_01v8_lvt ad=1.16 pd=8.58 as=1.16 ps=8.58 w=4 l=0.6
X98 GND.t182 frontAnalog_v0p0p1_1.x63.X frontAnalog_v0p0p1_1.RSfetsym_0.x1.Y GND.t177 sky130_fd_pr__nfet_01v8 ad=0.0878 pd=0.92 as=0.0878 ps=0.92 w=0.65 l=0.15
X99 frontAnalog_v0p0p1_10.RSfetsym_0.x2.Y frontAnalog_v0p0p1_10.x65.X GND.t103 GND.t102 sky130_fd_pr__nfet_01v8 ad=0.0878 pd=0.92 as=0.169 ps=1.82 w=0.65 l=0.15
X100 GND.t331 16to4_PriorityEncoder_v0p0p1_0.x43.Y OUT3.t57 GND.t330 sky130_fd_pr__nfet_01v8 ad=0.0878 pd=0.92 as=0.0878 ps=0.92 w=0.65 l=0.15
X101 VDD.t699 I5.t6 a_77637_n49127# VDD.t698 sky130_fd_pr__pfet_01v8_hvt ad=0.167 pd=1.39 as=0.0567 ps=0.69 w=0.42 l=0.15
X102 GND.t1563 16to4_PriorityEncoder_v0p0p1_0.x36.A 16to4_PriorityEncoder_v0p0p1_0.x36.Y GND.t1562 sky130_fd_pr__nfet_01v8 ad=0.169 pd=1.82 as=0.0878 ps=0.92 w=0.65 l=0.15
X103 VDD.t1296 16to4_PriorityEncoder_v0p0p1_0.x21.A 16to4_PriorityEncoder_v0p0p1_0.x22.A VDD.t1295 sky130_fd_pr__pfet_01v8_hvt ad=0.135 pd=1.27 as=0.135 ps=1.27 w=1 l=0.15
X104 frontAnalog_v0p0p1_2.RSfetsym_0.x1.Y frontAnalog_v0p0p1_2.x63.X GND.t58 GND.t53 sky130_fd_pr__nfet_01v8 ad=0.0878 pd=0.92 as=0.169 ps=1.82 w=0.65 l=0.15
X105 VDD.t1499 16to4_PriorityEncoder_v0p0p1_0.x36.A 16to4_PriorityEncoder_v0p0p1_0.x36.Y VDD.t1498 sky130_fd_pr__pfet_01v8_hvt ad=0.135 pd=1.27 as=0.135 ps=1.27 w=1 l=0.15
X106 a_16541_n13117.t1 GND.t1271 GND.t392 sky130_fd_pr__res_xhigh_po_5p73 l=85.8
X107 I1.t3 frontAnalog_v0p0p1_14.RSfetsym_0.x2.Y GND.t437 GND.t436 sky130_fd_pr__nfet_01v8 ad=0.58 pd=4.58 as=0.58 ps=4.58 w=2 l=0.25
X108 GND.t691 frontAnalog_v0p0p1_9.x65.A.t4 a_57123_n51159# GND.t690 sky130_fd_pr__nfet_01v8 ad=0.0754 pd=0.81 as=0.135 ps=1.56 w=0.52 l=0.15
X109 VV3.t11 VV2.t11 GND.t214 sky130_fd_pr__res_xhigh_po_5p73 l=2.52
X110 VDD.t732 I13.t6 a_77605_n45765# VDD.t731 sky130_fd_pr__pfet_01v8_hvt ad=0.0567 pd=0.69 as=0.109 ps=1.36 w=0.42 l=0.15
X111 a_77881_n52567# 16to4_PriorityEncoder_v0p0p1_0.x3.x18.C a_77775_n52567# GND.t153 sky130_fd_pr__nfet_01v8 ad=0.0693 pd=0.75 as=0.0798 ps=0.8 w=0.42 l=0.15
X112 16to4_PriorityEncoder_v0p0p1_0.x22.Y 16to4_PriorityEncoder_v0p0p1_0.x22.A GND.t469 GND.t468 sky130_fd_pr__nfet_01v8 ad=0.0878 pd=0.92 as=0.0878 ps=0.92 w=0.65 l=0.15
X113 frontAnalog_v0p0p1_9.x63.A.t2 frontAnalog_v0p0p1_9.x65.A.t5 a_55268_n52536# GND.t692 sky130_fd_pr__nfet_01v8_lvt ad=0.29 pd=2.58 as=0.29 ps=2.58 w=1 l=0.15
X114 OUT2.t123 16to4_PriorityEncoder_v0p0p1_0.x36.Y VDD.t1046 VDD.t1045 sky130_fd_pr__pfet_01v8_hvt ad=0.135 pd=1.27 as=0.26 ps=2.52 w=1 l=0.15
X115 OUT0.t124 16to4_PriorityEncoder_v0p0p1_0.x22.Y VDD.t920 VDD.t919 sky130_fd_pr__pfet_01v8_hvt ad=0.135 pd=1.27 as=0.135 ps=1.27 w=1 l=0.15
X116 VDD.t918 16to4_PriorityEncoder_v0p0p1_0.x22.Y OUT0.t123 VDD.t917 sky130_fd_pr__pfet_01v8_hvt ad=0.135 pd=1.27 as=0.135 ps=1.27 w=1 l=0.15
X117 I6.t0 frontAnalog_v0p0p1_9.RSfetsym_0.QN.t5 VDD.t1143 VDD.t1141 sky130_fd_pr__pfet_01v8 ad=0.58 pd=4.58 as=0.58 ps=4.58 w=2 l=0.3
X118 frontAnalog_v0p0p1_6.RSfetsym_0.x2.Y frontAnalog_v0p0p1_6.x65.X VDD.t13 VDD.t8 sky130_fd_pr__pfet_01v8_hvt ad=0.135 pd=1.27 as=0.135 ps=1.27 w=1 l=0.15
X119 GND.t653 16to4_PriorityEncoder_v0p0p1_0.x43.A 16to4_PriorityEncoder_v0p0p1_0.x43.Y GND.t652 sky130_fd_pr__nfet_01v8 ad=0.0878 pd=0.92 as=0.0878 ps=0.92 w=0.65 l=0.15
X120 GND.t1522 16to4_PriorityEncoder_v0p0p1_0.x29.Y OUT1.t60 GND.t1521 sky130_fd_pr__nfet_01v8 ad=0.0878 pd=0.92 as=0.0878 ps=0.92 w=0.65 l=0.15
X121 OUT2.t122 16to4_PriorityEncoder_v0p0p1_0.x36.Y VDD.t1044 VDD.t1043 sky130_fd_pr__pfet_01v8_hvt ad=0.135 pd=1.27 as=0.135 ps=1.27 w=1 l=0.15
X122 frontAnalog_v0p0p1_3.RSfetsym_0.x2.Y frontAnalog_v0p0p1_3.x65.X GND.t574 GND.t573 sky130_fd_pr__nfet_01v8 ad=0.0878 pd=0.92 as=0.169 ps=1.82 w=0.65 l=0.15
X123 a_77639_n42341# VDD.t1176 VDD.t1178 VDD.t1177 sky130_fd_pr__pfet_01v8_hvt ad=0.0567 pd=0.69 as=0.118 ps=1.4 w=0.42 l=0.15
X124 frontAnalog_v0p0p1_13.RSfetsym_0.x1.Y frontAnalog_v0p0p1_13.x63.X GND.t383 GND.t379 sky130_fd_pr__nfet_01v8 ad=0.0878 pd=0.92 as=0.169 ps=1.82 w=0.65 l=0.15
X125 a_59577_n57483# frontAnalog_v0p0p1_10.x63.X I5.t1 GND.t847 sky130_fd_pr__nfet_01v8 ad=0.29 pd=2.58 as=0.29 ps=2.58 w=1 l=0.15
X126 a_59578_n67770# frontAnalog_v0p0p1_13.x65.X frontAnalog_v0p0p1_13.RSfetsym_0.QN.t1 GND.t1208 sky130_fd_pr__nfet_01v8 ad=0.29 pd=2.58 as=0.315 ps=2.72 w=1 l=0.15
X127 a_77687_n45765# I13.t7 a_77605_n45765# GND.t1175 sky130_fd_pr__nfet_01v8 ad=0.0441 pd=0.63 as=0.109 ps=1.36 w=0.42 l=0.15
X128 16to4_PriorityEncoder_v0p0p1_0.x42.A 16to4_PriorityEncoder_v0p0p1_0.x5.GS VDD.t394 VDD.t393 sky130_fd_pr__pfet_01v8_hvt ad=0.26 pd=2.52 as=0.26 ps=2.52 w=1 l=0.15
X129 16to4_PriorityEncoder_v0p0p1_0.x3.x19.X a_77605_n52819# VDD.t381 VDD.t380 sky130_fd_pr__pfet_01v8_hvt ad=0.26 pd=2.52 as=0.312 ps=1.68 w=1 l=0.15
X130 VV2.t7 VV1.t5 GND.t202 sky130_fd_pr__res_xhigh_po_5p73 l=2.52
X131 VDD.t1042 16to4_PriorityEncoder_v0p0p1_0.x36.Y OUT2.t121 VDD.t1041 sky130_fd_pr__pfet_01v8_hvt ad=0.135 pd=1.27 as=0.135 ps=1.27 w=1 l=0.15
X132 OUT1.t59 16to4_PriorityEncoder_v0p0p1_0.x29.Y GND.t1520 GND.t1519 sky130_fd_pr__nfet_01v8 ad=0.0878 pd=0.92 as=0.0878 ps=0.92 w=0.65 l=0.15
X133 frontAnalog_v0p0p1_7.x63.A.t3 frontAnalog_v0p0p1_7.x65.A.t4 VDD.t1301 VDD.t1186 sky130_fd_pr__pfet_01v8_lvt ad=1.16 pd=8.58 as=1.16 ps=8.58 w=4 l=0.35
X134 I9.t4 frontAnalog_v0p0p1_7.RSfetsym_0.x2.Y GND.t674 GND.t183 sky130_fd_pr__nfet_01v8 ad=0.58 pd=4.58 as=0.58 ps=4.58 w=2 l=0.25
X135 VV7.t16 w_55000_n52150# error sky130_fd_pr__cap_var_lvt w=2 l=0.18
X136 a_16719_n13117.t22 a_16599_n13205.t5 a_16541_n13117.t7 GND.t730 sky130_fd_pr__nfet_01v8_lvt ad=1.16 pd=8.58 as=1.16 ps=8.58 w=4 l=0.6
X137 16to4_PriorityEncoder_v0p0p1_0.x5.x11.X a_77637_n41087# GND.t69 GND.t68 sky130_fd_pr__nfet_01v8 ad=0.182 pd=1.86 as=0.112 ps=1.04 w=0.65 l=0.15
X138 OUT0.t58 16to4_PriorityEncoder_v0p0p1_0.x22.Y GND.t976 GND.t975 sky130_fd_pr__nfet_01v8 ad=0.0878 pd=0.92 as=0.0878 ps=0.92 w=0.65 l=0.15
X139 GND.t1210 16to4_PriorityEncoder_v0p0p1_0.x3.x14.A a_78065_n49349# GND.t1209 sky130_fd_pr__nfet_01v8 ad=0.102 pd=0.99 as=0.0567 ps=0.69 w=0.42 l=0.15
X140 a_78703_n45515# 16to4_PriorityEncoder_v0p0p1_0.x5.x19.X a_78607_n45515# VDD.t456 sky130_fd_pr__pfet_01v8_hvt ad=0.0441 pd=0.63 as=0.0693 ps=0.75 w=0.42 l=0.15
X141 frontAnalog_v0p0p1_2.x65.X a_57123_n2559# GND.t396 GND.t395 sky130_fd_pr__nfet_01v8 ad=0.135 pd=1.56 as=0.0754 ps=0.81 w=0.52 l=0.15
X142 16to4_PriorityEncoder_v0p0p1_0.x22.Y 16to4_PriorityEncoder_v0p0p1_0.x22.A VDD.t455 VDD.t454 sky130_fd_pr__pfet_01v8_hvt ad=0.135 pd=1.27 as=0.135 ps=1.27 w=1 l=0.15
X143 a_16719_n13117.t3 a_16719_n13117.t2 a_16599_n13205.t0 GND.t1246 sky130_fd_pr__nfet_01v8_lvt ad=0.122 pd=1.42 as=0.122 ps=1.42 w=0.42 l=0.15
X144 VDD.t1336 frontAnalog_v0p0p1_8.x65.X frontAnalog_v0p0p1_8.RSfetsym_0.x2.Y VDD.t1329 sky130_fd_pr__pfet_01v8_hvt ad=0.135 pd=1.27 as=0.135 ps=1.27 w=1 l=0.15
X145 GND.t329 16to4_PriorityEncoder_v0p0p1_0.x43.Y OUT3.t56 GND.t328 sky130_fd_pr__nfet_01v8 ad=0.0878 pd=0.92 as=0.0878 ps=0.92 w=0.65 l=0.15
X146 GND.t467 16to4_PriorityEncoder_v0p0p1_0.x22.A 16to4_PriorityEncoder_v0p0p1_0.x22.Y GND.t466 sky130_fd_pr__nfet_01v8 ad=0.0878 pd=0.92 as=0.0878 ps=0.92 w=0.65 l=0.15
X147 VDD.t1040 16to4_PriorityEncoder_v0p0p1_0.x36.Y OUT2.t120 VDD.t1039 sky130_fd_pr__pfet_01v8_hvt ad=0.135 pd=1.27 as=0.135 ps=1.27 w=1 l=0.15
X148 VDD.t580 frontAnalog_v0p0p1_13.x63.A.t4 a_57123_n68879# VDD.t579 sky130_fd_pr__pfet_01v8_hvt ad=0.115 pd=1.08 as=0.205 ps=2.1 w=0.79 l=0.15
X149 a_59577_n14283# frontAnalog_v0p0p1_3.x63.X I13.t1 GND.t487 sky130_fd_pr__nfet_01v8 ad=0.29 pd=2.58 as=0.29 ps=2.58 w=1 l=0.15
X150 a_59578_n24570# frontAnalog_v0p0p1_5.x65.X frontAnalog_v0p0p1_5.RSfetsym_0.QN.t4 GND.t1380 sky130_fd_pr__nfet_01v8 ad=0.29 pd=2.58 as=0.315 ps=2.72 w=1 l=0.15
X151 16to4_PriorityEncoder_v0p0p1_0.x29.Y 16to4_PriorityEncoder_v0p0p1_0.x29.A GND.t561 GND.t560 sky130_fd_pr__nfet_01v8 ad=0.0878 pd=0.92 as=0.0878 ps=0.92 w=0.65 l=0.15
X152 VV7.t1 VV6.t1 GND.t33 sky130_fd_pr__res_xhigh_po_5p73 l=2.52
X153 I6.t3 frontAnalog_v0p0p1_9.x63.X VDD.t1103 VDD.t1100 sky130_fd_pr__pfet_01v8 ad=0.29 pd=2.29 as=0.58 ps=4.58 w=2 l=0.25
X154 a_53630_n63396# frontAnalog_v0p0p1_10.IB.t4 GND.t386 GND.t36 sky130_fd_pr__nfet_01v8_lvt ad=1.16 pd=8.58 as=1.16 ps=8.58 w=4 l=0.6
X155 16to4_PriorityEncoder_v0p0p1_0.x5.x22.A a_77639_n42341# VDD.t341 VDD.t340 sky130_fd_pr__pfet_01v8_hvt ad=0.475 pd=2.95 as=0.167 ps=1.39 w=1 l=0.15
X156 frontAnalog_v0p0p1_0.RSfetsym_0.x1.Y frontAnalog_v0p0p1_0.x63.X GND.t373 GND.t369 sky130_fd_pr__nfet_01v8 ad=0.0878 pd=0.92 as=0.0878 ps=0.92 w=0.65 l=0.15
X157 16to4_PriorityEncoder_v0p0p1_0.x43.Y 16to4_PriorityEncoder_v0p0p1_0.x43.A GND.t651 GND.t650 sky130_fd_pr__nfet_01v8 ad=0.0878 pd=0.92 as=0.0878 ps=0.92 w=0.65 l=0.15
X158 VDD.t564 frontAnalog_v0p0p1_10.x63.A.t4 frontAnalog_v0p0p1_10.x65.A.t2 VDD.t563 sky130_fd_pr__pfet_01v8_lvt ad=1.16 pd=8.58 as=1.16 ps=8.58 w=4 l=0.35
X159 OUT2.t59 16to4_PriorityEncoder_v0p0p1_0.x36.Y GND.t1106 GND.t1105 sky130_fd_pr__nfet_01v8 ad=0.0878 pd=0.92 as=0.169 ps=1.82 w=0.65 l=0.15
X160 frontAnalog_v0p0p1_0.RSfetsym_0.x2.Y frontAnalog_v0p0p1_0.x65.X GND.t50 GND.t49 sky130_fd_pr__nfet_01v8 ad=0.0878 pd=0.92 as=0.169 ps=1.82 w=0.65 l=0.15
X161 OUT1.t126 16to4_PriorityEncoder_v0p0p1_0.x29.Y VDD.t1462 VDD.t1461 sky130_fd_pr__pfet_01v8_hvt ad=0.135 pd=1.27 as=0.135 ps=1.27 w=1 l=0.15
X162 w_55000_n8950# VIN.t3 a_53630_n9396# GND.t818 sky130_fd_pr__nfet_01v8_lvt ad=1.16 pd=8.58 as=1.16 ps=8.58 w=4 l=0.6
X163 VDD.t701 I5.t7 a_77605_n53805# VDD.t700 sky130_fd_pr__pfet_01v8_hvt ad=0.0567 pd=0.69 as=0.109 ps=1.36 w=0.42 l=0.15
X164 frontAnalog_v0p0p1_12.x65.X a_57123_n72759# GND.t620 GND.t619 sky130_fd_pr__nfet_01v8 ad=0.135 pd=1.56 as=0.0754 ps=0.81 w=0.52 l=0.15
X165 VDD.t1460 16to4_PriorityEncoder_v0p0p1_0.x29.Y OUT1.t125 VDD.t1459 sky130_fd_pr__pfet_01v8_hvt ad=0.135 pd=1.27 as=0.135 ps=1.27 w=1 l=0.15
X166 OUT0.t122 16to4_PriorityEncoder_v0p0p1_0.x22.Y VDD.t916 VDD.t915 sky130_fd_pr__pfet_01v8_hvt ad=0.135 pd=1.27 as=0.135 ps=1.27 w=1 l=0.15
X167 frontAnalog_v0p0p1_4.RSfetsym_0.x2.Y frontAnalog_v0p0p1_4.x65.X GND.t496 GND.t495 sky130_fd_pr__nfet_01v8 ad=0.0878 pd=0.92 as=0.0878 ps=0.92 w=0.65 l=0.15
X168 GND.t327 16to4_PriorityEncoder_v0p0p1_0.x43.Y OUT3.t55 GND.t326 sky130_fd_pr__nfet_01v8 ad=0.0878 pd=0.92 as=0.0878 ps=0.92 w=0.65 l=0.15
X169 VDD.t404 frontAnalog_v0p0p1_5.x63.A.t4 a_57123_n25679# VDD.t403 sky130_fd_pr__pfet_01v8_hvt ad=0.115 pd=1.08 as=0.205 ps=2.1 w=0.79 l=0.15
X170 GND.t974 16to4_PriorityEncoder_v0p0p1_0.x22.Y OUT0.t57 GND.t973 sky130_fd_pr__nfet_01v8 ad=0.0878 pd=0.92 as=0.0878 ps=0.92 w=0.65 l=0.15
X171 a_53630_n20196# frontAnalog_v0p0p1_10.IB.t5 GND.t387 GND.t36 sky130_fd_pr__nfet_01v8_lvt ad=1.16 pd=8.58 as=1.16 ps=8.58 w=4 l=0.6
X172 a_77639_n50381# 16to4_PriorityEncoder_v0p0p1_0.x3.EI VDD.t1246 VDD.t1245 sky130_fd_pr__pfet_01v8_hvt ad=0.0567 pd=0.69 as=0.118 ps=1.4 w=0.42 l=0.15
X173 VDD.t1497 16to4_PriorityEncoder_v0p0p1_0.x36.A 16to4_PriorityEncoder_v0p0p1_0.x36.Y VDD.t1496 sky130_fd_pr__pfet_01v8_hvt ad=0.135 pd=1.27 as=0.135 ps=1.27 w=1 l=0.15
X174 VDD.t453 16to4_PriorityEncoder_v0p0p1_0.x22.A 16to4_PriorityEncoder_v0p0p1_0.x22.Y VDD.t452 sky130_fd_pr__pfet_01v8_hvt ad=0.135 pd=1.27 as=0.135 ps=1.27 w=1 l=0.15
X175 VDD.t104 frontAnalog_v0p0p1_3.x63.A.t4 frontAnalog_v0p0p1_3.x65.A.t3 VDD.t103 sky130_fd_pr__pfet_01v8_lvt ad=1.16 pd=8.58 as=1.16 ps=8.58 w=4 l=0.35
X176 OUT3.t54 16to4_PriorityEncoder_v0p0p1_0.x43.Y GND.t325 GND.t324 sky130_fd_pr__nfet_01v8 ad=0.0878 pd=0.92 as=0.0878 ps=0.92 w=0.65 l=0.15
X177 VDD.t134 S0.t4 a_57123_n83559# VDD.t133 sky130_fd_pr__pfet_01v8_hvt ad=0.115 pd=1.08 as=0.205 ps=2.1 w=0.79 l=0.15
X178 GND.t820 R1.t5 a_57123_n79679# GND.t608 sky130_fd_pr__nfet_01v8 ad=0.0754 pd=0.81 as=0.135 ps=1.56 w=0.52 l=0.15
X179 a_55268_n47136# CLK.t3 GND.t159 GND.t158 sky130_fd_pr__nfet_01v8_lvt ad=0.29 pd=2.58 as=0.29 ps=2.58 w=1 l=0.15
X180 frontAnalog_v0p0p1_1.RSfetsym_0.x2.Y frontAnalog_v0p0p1_1.x65.X GND.t756 GND.t755 sky130_fd_pr__nfet_01v8 ad=0.0878 pd=0.92 as=0.0878 ps=0.92 w=0.65 l=0.15
X181 VDD.t189 frontAnalog_v0p0p1_12.x65.X frontAnalog_v0p0p1_12.RSfetsym_0.x2.Y VDD.t185 sky130_fd_pr__pfet_01v8_hvt ad=0.26 pd=2.52 as=0.135 ps=1.27 w=1 l=0.15
X182 GND.t1341 16to4_PriorityEncoder_v0p0p1_0.x3.x15.X a_78349_n51085# GND.t14 sky130_fd_pr__nfet_01v8 ad=0.0567 pd=0.69 as=0.0693 ps=0.75 w=0.42 l=0.15
X183 frontAnalog_v0p0p1_4.x65.A.t2 frontAnalog_v0p0p1_4.x63.A.t4 a_55268_n20136# GND.t806 sky130_fd_pr__nfet_01v8_lvt ad=0.29 pd=2.58 as=0.29 ps=2.58 w=1 l=0.15
X184 frontAnalog_v0p0p1_9.RSfetsym_0.QN.t1 I6.t5 VDD.t1142 VDD.t1141 sky130_fd_pr__pfet_01v8 ad=0.58 pd=4.58 as=0.58 ps=4.58 w=2 l=0.3
X185 OUT3.t121 16to4_PriorityEncoder_v0p0p1_0.x43.Y VDD.t320 VDD.t319 sky130_fd_pr__pfet_01v8_hvt ad=0.135 pd=1.27 as=0.135 ps=1.27 w=1 l=0.15
X186 VV10.t15 VV9.t14 GND.t202 sky130_fd_pr__res_xhigh_po_5p73 l=2.52
X187 a_78703_n53555# 16to4_PriorityEncoder_v0p0p1_0.x3.x19.X a_78607_n53555# VDD.t86 sky130_fd_pr__pfet_01v8_hvt ad=0.0441 pd=0.63 as=0.0693 ps=0.75 w=0.42 l=0.15
X188 GND.t972 16to4_PriorityEncoder_v0p0p1_0.x22.Y OUT0.t56 GND.t971 sky130_fd_pr__nfet_01v8 ad=0.0878 pd=0.92 as=0.0878 ps=0.92 w=0.65 l=0.15
X189 OUT1.t58 16to4_PriorityEncoder_v0p0p1_0.x29.Y GND.t1518 GND.t1517 sky130_fd_pr__nfet_01v8 ad=0.0878 pd=0.92 as=0.0878 ps=0.92 w=0.65 l=0.15
X190 VV12.t1 VV11.t0 GND.t123 sky130_fd_pr__res_xhigh_po_5p73 l=2.52
X191 VV3.t4 VV2.t2 GND.t394 sky130_fd_pr__res_xhigh_po_5p73 l=2.52
X192 a_77775_n51335# 16to4_PriorityEncoder_v0p0p1_0.x3.x19.C a_77687_n51335# GND.t346 sky130_fd_pr__nfet_01v8 ad=0.0798 pd=0.8 as=0.0609 ps=0.71 w=0.42 l=0.15
X193 16to4_PriorityEncoder_v0p0p1_0.x43.A 16to4_PriorityEncoder_v0p0p1_0.x42.A VDD.t402 VDD.t401 sky130_fd_pr__pfet_01v8_hvt ad=0.135 pd=1.27 as=0.26 ps=2.52 w=1 l=0.15
X194 a_53630_n25596# VV12.t16 w_55000_n24528# GND.t606 sky130_fd_pr__nfet_01v8_lvt ad=1.16 pd=8.58 as=1.16 ps=8.58 w=4 l=0.6
X195 VV13.t6 VV12.t5 GND.t202 sky130_fd_pr__res_xhigh_po_5p73 l=2.52
X196 OUT3.t53 16to4_PriorityEncoder_v0p0p1_0.x43.Y GND.t323 GND.t322 sky130_fd_pr__nfet_01v8 ad=0.0878 pd=0.92 as=0.0878 ps=0.92 w=0.65 l=0.15
X197 16to4_PriorityEncoder_v0p0p1_0.x28.A 16to4_PriorityEncoder_v0p0p1_0.x1.X GND.t681 GND.t680 sky130_fd_pr__nfet_01v8 ad=0.169 pd=1.82 as=0.169 ps=1.82 w=0.65 l=0.15
X198 VDD.t914 16to4_PriorityEncoder_v0p0p1_0.x22.Y OUT0.t121 VDD.t913 sky130_fd_pr__pfet_01v8_hvt ad=0.135 pd=1.27 as=0.135 ps=1.27 w=1 l=0.15
X199 VDD.t1038 16to4_PriorityEncoder_v0p0p1_0.x36.Y OUT2.t119 VDD.t1037 sky130_fd_pr__pfet_01v8_hvt ad=0.135 pd=1.27 as=0.135 ps=1.27 w=1 l=0.15
X200 frontAnalog_v0p0p1_9.RSfetsym_0.x2.Y frontAnalog_v0p0p1_9.x65.X VDD.t1275 VDD.t1270 sky130_fd_pr__pfet_01v8_hvt ad=0.135 pd=1.27 as=0.26 ps=2.52 w=1 l=0.15
X201 VDD.t158 frontAnalog_v0p0p1_1.x65.A.t4 a_57123_n40359# VDD.t157 sky130_fd_pr__pfet_01v8_hvt ad=0.115 pd=1.08 as=0.205 ps=2.1 w=0.79 l=0.15
X202 GND.t1279 frontAnalog_v0p0p1_7.x63.A.t4 a_57123_n36479# GND.t1278 sky130_fd_pr__nfet_01v8 ad=0.0754 pd=0.81 as=0.135 ps=1.56 w=0.52 l=0.15
X203 frontAnalog_v0p0p1_10.RSfetsym_0.QN.t3 frontAnalog_v0p0p1_10.x65.X VDD.t85 VDD.t81 sky130_fd_pr__pfet_01v8 ad=0.29 pd=2.29 as=0.58 ps=4.58 w=2 l=0.25
X204 frontAnalog_v0p0p1_9.RSfetsym_0.x1.Y frontAnalog_v0p0p1_9.x63.X GND.t1193 GND.t1188 sky130_fd_pr__nfet_01v8 ad=0.0878 pd=0.92 as=0.0878 ps=0.92 w=0.65 l=0.15
X205 VDD.t12 frontAnalog_v0p0p1_6.x65.X frontAnalog_v0p0p1_6.RSfetsym_0.x2.Y VDD.t8 sky130_fd_pr__pfet_01v8_hvt ad=0.26 pd=2.52 as=0.135 ps=1.27 w=1 l=0.15
X206 16to4_PriorityEncoder_v0p0p1_0.x36.Y 16to4_PriorityEncoder_v0p0p1_0.x36.A VDD.t1495 VDD.t1494 sky130_fd_pr__pfet_01v8_hvt ad=0.135 pd=1.27 as=0.135 ps=1.27 w=1 l=0.15
X207 VDD.t458 I4.t5 a_77637_n48817# VDD.t457 sky130_fd_pr__pfet_01v8_hvt ad=0.167 pd=1.39 as=0.0567 ps=0.69 w=0.42 l=0.15
X208 VDD.t1458 16to4_PriorityEncoder_v0p0p1_0.x29.Y OUT1.t124 VDD.t1457 sky130_fd_pr__pfet_01v8_hvt ad=0.26 pd=2.52 as=0.135 ps=1.27 w=1 l=0.15
X209 VDD.t1116 frontAnalog_v0p0p1_13.x65.X frontAnalog_v0p0p1_13.RSfetsym_0.QN.t3 VDD.t1112 sky130_fd_pr__pfet_01v8 ad=0.58 pd=4.58 as=0.29 ps=2.29 w=2 l=0.25
X210 GND.t970 16to4_PriorityEncoder_v0p0p1_0.x22.Y OUT0.t55 GND.t969 sky130_fd_pr__nfet_01v8 ad=0.0878 pd=0.92 as=0.0878 ps=0.92 w=0.65 l=0.15
X211 VDD.t912 16to4_PriorityEncoder_v0p0p1_0.x22.Y OUT0.t120 VDD.t911 sky130_fd_pr__pfet_01v8_hvt ad=0.135 pd=1.27 as=0.135 ps=1.27 w=1 l=0.15
X212 frontAnalog_v0p0p1_11.RSfetsym_0.x1.Y frontAnalog_v0p0p1_11.x63.X VDD.t497 VDD.t492 sky130_fd_pr__pfet_01v8_hvt ad=0.135 pd=1.27 as=0.135 ps=1.27 w=1 l=0.15